version 3
run maxRtt10exp1-0-20230629-00:00:00-52333
attr configname maxRtt10exp1
attr datetime 20230629-00:00:00
attr datetimef 20230629-000000
attr experiment maxRtt10exp1
attr inifile omnetpp.ini
attr iterationvars ""
attr iterationvarsd ""
attr iterationvarsf ""
attr measurement ""
attr network simplenetwork
attr processid 52333
attr repetition 0
attr replication #0
attr resultdir results
attr runnumber 0
attr seedset 0
config image-path ../../../../inet4.4/images
config extends General
config **.tcp.additiveIncreasePercent 0.01
config network simplenetwork
config sim-time-limit 10s
config record-eventlog false
config cmdenv-express-mode true
config cmdenv-redirect-output false
config cmdenv-output-file dctcpLog.txt
config **.client*.tcp.conn-8.cmdenv-log-level detail
config cmdenv-log-prefix "%t | %m |"
config cmdenv-event-banners false
config **.cmdenv-log-level off
config **.**.tcp.conn-*.cwnd:vector.vector-recording true
config **.**.tcp.conn-*.u:vector.vector-recording true
config **.**.tcp.conn-*.U:vector.vector-recording true
config **.**.tcp.conn-*.additiveIncrease:vector.vector-recording true
config **.**.tcp.conn-*.sharingFlows:vector.vector-recording true
config **.**.tcp.conn-*.tau:vector.vector-recording true
config **.**.tcp.conn-*.txRate:vector.vector-recording true
config **.**.tcp.conn-*.rtt:vector.vector-recording true
config **.**.tcp.conn-*.lossRecovery:vector.vector-recording true
config **.**.tcp.conn-*.srtt:vector.vector-recording true
config **.**.queue.queueLength:vector.vector-recording true
config **.**.queue.queueingTime:vector.vector-recording true
config **.**.queue.avgRtt:vector.vector-recording true
config **.server*.app[*].**:vector.vector-recording true
config **.scalar-recording false
config **.vector-recording false
config **.bin-recording false
config **.server*.app[*].*.thrMeasurementInterval 0.3s
config **.server*.app[*].*.thrMeasurementBandwidth 125000000
config **.tcp.typename Hpcc
config **.tcp.tcpAlgorithmClass "\"HpccFlavour\""
config **.tcp.advertisedWindow 200000000
config **.tcp.windowScalingSupport true
config **.tcp.windowScalingFactor -1
config **.tcp.increasedIWEnabled true
config **.tcp.delayedAcksEnabled false
config **.tcp.ecnWillingness false
config **.tcp.nagleEnabled true
config **.tcp.stopOperationTimeout 4000s
config **.tcp.mss 1460
config **.tcp.sackSupport true
config **.client1.tcp.bandwidth 125000000
config **.client1.tcp.basePropagationRTT 0.005s
config **.client2.tcp.bandwidth 125000000
config **.client2.tcp.basePropagationRTT 0.010s
config **.tcp.initialSsthresh 0
config **.client*.numApps 1
config **.client*.app[*].typename HpccSessionApp
config **.client1.app[0].connectAddress "\"server1\""
config *.client1.app[0].sendBytes 2Gb
config *.client1.app[0].connectAddress "\"server1\""
config *.client2.app[0].connectAddress "\"server2\""
config *.client1.app[0].tOpen 0s
config *.client2.app[0].tOpen 0.1s
config *.client1.app[0].tSend 0s
config *.client2.app[0].tSend 0.1s
config *.client1.app[0].tClose -1s
config *.client*.app[0].sendBytes 2GB
config *.client*.app[0].dataTransferMode "\"bytecount\""
config *.client*.app[0].statistic-recording true
config **.server*.numApps 1
config **.server*.app[*].typename TcpSinkApp
config **.server*.app[*].serverThreadModuleType "\"hpcc.applications.tcpapp.TcpThroughputSinkAppThread\""
config **.ppp[*].queue.typename IntQueue
config **.ppp[*].queue.packetCapacity 860

vector 0 simplenetwork.client1.ppp[0].queue queueingTime:vector ETV
attr interpolationmode none
attr recordingmode vector
attr source queueingTime(packetPulled)
attr title "queueing times"
attr unit s
vector 1 simplenetwork.client1.ppp[0].queue queueLength:vector ETV
attr autoWarmupFilter false
attr interpolationmode sample-hold
attr recordingmode vector
attr source "warmup(atomic(constant0(packetPushEnded) + count(packetPushStarted) - count(packetPulled) - count(packetRemoved) - count(packetDropped)))"
attr title "queue length"
attr unit pk
vector 2 simplenetwork.router1.ppp[2].queue queueingTime:vector ETV
attr interpolationmode none
attr recordingmode vector
attr source queueingTime(packetPulled)
attr title "queueing times"
attr unit s
vector 3 simplenetwork.router1.ppp[2].queue queueLength:vector ETV
attr autoWarmupFilter false
attr interpolationmode sample-hold
attr recordingmode vector
attr source "warmup(atomic(constant0(packetPushEnded) + count(packetPushStarted) - count(packetPulled) - count(packetRemoved) - count(packetDropped)))"
attr title "queue length"
attr unit pk
vector 4 simplenetwork.router2.ppp[1].queue queueingTime:vector ETV
attr interpolationmode none
attr recordingmode vector
attr source queueingTime(packetPulled)
attr title "queueing times"
attr unit s
vector 5 simplenetwork.router2.ppp[1].queue queueLength:vector ETV
attr autoWarmupFilter false
attr interpolationmode sample-hold
attr recordingmode vector
attr source "warmup(atomic(constant0(packetPushEnded) + count(packetPushStarted) - count(packetPulled) - count(packetRemoved) - count(packetDropped)))"
attr title "queue length"
attr unit pk
vector 6 simplenetwork.server1.ppp[0].queue queueingTime:vector ETV
attr interpolationmode none
attr recordingmode vector
attr source queueingTime(packetPulled)
attr title "queueing times"
attr unit s
vector 7 simplenetwork.server1.ppp[0].queue queueLength:vector ETV
attr autoWarmupFilter false
attr interpolationmode sample-hold
attr recordingmode vector
attr source "warmup(atomic(constant0(packetPushEnded) + count(packetPushStarted) - count(packetPulled) - count(packetRemoved) - count(packetDropped)))"
attr title "queue length"
attr unit pk
vector 8 simplenetwork.router2.ppp[0].queue queueingTime:vector ETV
attr interpolationmode none
attr recordingmode vector
attr source queueingTime(packetPulled)
attr title "queueing times"
attr unit s
vector 9 simplenetwork.router2.ppp[0].queue queueLength:vector ETV
attr autoWarmupFilter false
attr interpolationmode sample-hold
attr recordingmode vector
attr source "warmup(atomic(constant0(packetPushEnded) + count(packetPushStarted) - count(packetPulled) - count(packetRemoved) - count(packetDropped)))"
attr title "queue length"
attr unit pk
vector 10 simplenetwork.router1.ppp[0].queue queueingTime:vector ETV
attr interpolationmode none
attr recordingmode vector
attr source queueingTime(packetPulled)
attr title "queueing times"
attr unit s
vector 11 simplenetwork.router1.ppp[0].queue queueLength:vector ETV
attr autoWarmupFilter false
attr interpolationmode sample-hold
attr recordingmode vector
attr source "warmup(atomic(constant0(packetPushEnded) + count(packetPushStarted) - count(packetPulled) - count(packetRemoved) - count(packetDropped)))"
attr title "queue length"
attr unit pk
vector 12 simplenetwork.server1.app[0].thread_15 endToEndDelay:vector ETV
attr interpolationmode none
attr recordingmode vector
attr source dataAge(packetReceived)
attr title "end-to-end delay"
attr unit s
vector 13 simplenetwork.server1.app[0] endToEndDelay:vector ETV
attr checkSignals false
attr interpolationmode none
attr recordingmode vector
attr source dataAge(packetReceived)
attr title "end-to-end delay"
attr unit s
vector 14 simplenetwork.client1.tcp.conn-14 rtt:vector ETV
attr interpolationmode sample-hold
attr recordingmode vector
vector 15 simplenetwork.client1.tcp.conn-14 srtt:vector ETV
attr interpolationmode sample-hold
attr recordingmode vector
vector 16 simplenetwork.client1.tcp.conn-14 cwnd:vector ETV
attr interpolationmode sample-hold
attr recordingmode vector
vector 17 simplenetwork.client1.ppp[0].queue avgRtt:vector ETV
attr interpolationmode sample-hold
attr recordingmode vector
vector 18 simplenetwork.router1.ppp[2].queue avgRtt:vector ETV
attr interpolationmode sample-hold
attr recordingmode vector
vector 19 simplenetwork.router2.ppp[1].queue avgRtt:vector ETV
attr interpolationmode sample-hold
attr recordingmode vector
vector 20 simplenetwork.client1.tcp.conn-14 txRate:vector ETV
attr interpolationmode sample-hold
attr recordingmode vector
vector 21 simplenetwork.client1.tcp.conn-14 u:vector ETV
attr interpolationmode sample-hold
attr recordingmode vector
vector 22 simplenetwork.client1.tcp.conn-14 tau:vector ETV
attr interpolationmode sample-hold
attr recordingmode vector
vector 23 simplenetwork.client1.tcp.conn-14 sharingFlows:vector ETV
attr interpolationmode sample-hold
attr recordingmode vector
vector 24 simplenetwork.client1.tcp.conn-14 U:vector ETV
attr interpolationmode sample-hold
attr recordingmode vector
vector 25 simplenetwork.client1.tcp.conn-14 additiveIncrease:vector ETV
attr interpolationmode sample-hold
attr recordingmode vector
vector 26 simplenetwork.client2.ppp[0].queue queueingTime:vector ETV
attr interpolationmode none
attr recordingmode vector
attr source queueingTime(packetPulled)
attr title "queueing times"
attr unit s
vector 27 simplenetwork.client2.ppp[0].queue queueLength:vector ETV
attr autoWarmupFilter false
attr interpolationmode sample-hold
attr recordingmode vector
attr source "warmup(atomic(constant0(packetPushEnded) + count(packetPushStarted) - count(packetPulled) - count(packetRemoved) - count(packetDropped)))"
attr title "queue length"
attr unit pk
vector 28 simplenetwork.router2.ppp[2].queue queueingTime:vector ETV
attr interpolationmode none
attr recordingmode vector
attr source queueingTime(packetPulled)
attr title "queueing times"
attr unit s
vector 29 simplenetwork.router2.ppp[2].queue queueLength:vector ETV
attr autoWarmupFilter false
attr interpolationmode sample-hold
attr recordingmode vector
attr source "warmup(atomic(constant0(packetPushEnded) + count(packetPushStarted) - count(packetPulled) - count(packetRemoved) - count(packetDropped)))"
attr title "queue length"
attr unit pk
vector 30 simplenetwork.server2.ppp[0].queue queueingTime:vector ETV
attr interpolationmode none
attr recordingmode vector
attr source queueingTime(packetPulled)
attr title "queueing times"
attr unit s
vector 31 simplenetwork.server2.ppp[0].queue queueLength:vector ETV
attr autoWarmupFilter false
attr interpolationmode sample-hold
attr recordingmode vector
attr source "warmup(atomic(constant0(packetPushEnded) + count(packetPushStarted) - count(packetPulled) - count(packetRemoved) - count(packetDropped)))"
attr title "queue length"
attr unit pk
vector 32 simplenetwork.router1.ppp[1].queue queueingTime:vector ETV
attr interpolationmode none
attr recordingmode vector
attr source queueingTime(packetPulled)
attr title "queueing times"
attr unit s
vector 33 simplenetwork.router1.ppp[1].queue queueLength:vector ETV
attr autoWarmupFilter false
attr interpolationmode sample-hold
attr recordingmode vector
attr source "warmup(atomic(constant0(packetPushEnded) + count(packetPushStarted) - count(packetPulled) - count(packetRemoved) - count(packetDropped)))"
attr title "queue length"
attr unit pk
vector 34 simplenetwork.server2.app[0].thread_17 endToEndDelay:vector ETV
attr interpolationmode none
attr recordingmode vector
attr source dataAge(packetReceived)
attr title "end-to-end delay"
attr unit s
vector 35 simplenetwork.server2.app[0] endToEndDelay:vector ETV
attr checkSignals false
attr interpolationmode none
attr recordingmode vector
attr source dataAge(packetReceived)
attr title "end-to-end delay"
attr unit s
vector 36 simplenetwork.client2.tcp.conn-16 rtt:vector ETV
attr interpolationmode sample-hold
attr recordingmode vector
vector 37 simplenetwork.client2.tcp.conn-16 srtt:vector ETV
attr interpolationmode sample-hold
attr recordingmode vector
vector 38 simplenetwork.client2.tcp.conn-16 cwnd:vector ETV
attr interpolationmode sample-hold
attr recordingmode vector
vector 39 simplenetwork.client2.ppp[0].queue avgRtt:vector ETV
attr interpolationmode sample-hold
attr recordingmode vector
vector 40 simplenetwork.router2.ppp[2].queue avgRtt:vector ETV
attr interpolationmode sample-hold
attr recordingmode vector
vector 41 simplenetwork.client2.tcp.conn-16 txRate:vector ETV
attr interpolationmode sample-hold
attr recordingmode vector
vector 42 simplenetwork.client2.tcp.conn-16 u:vector ETV
attr interpolationmode sample-hold
attr recordingmode vector
vector 43 simplenetwork.client2.tcp.conn-16 tau:vector ETV
attr interpolationmode sample-hold
attr recordingmode vector
vector 44 simplenetwork.client2.tcp.conn-16 sharingFlows:vector ETV
attr interpolationmode sample-hold
attr recordingmode vector
vector 45 simplenetwork.client2.tcp.conn-16 U:vector ETV
attr interpolationmode sample-hold
attr recordingmode vector
vector 46 simplenetwork.client2.tcp.conn-16 additiveIncrease:vector ETV
attr interpolationmode sample-hold
attr recordingmode vector
vector 47 simplenetwork.server1.app[0].thread_15 ReceiverSideThroughput:vector ETV
attr recordingmode vector
attr source ReceiverSideThroughput
attr unit bps
vector 48 simplenetwork.server2.app[0].thread_17 ReceiverSideThroughput:vector ETV
attr recordingmode vector
attr source ReceiverSideThroughput
attr unit bps
3	11	0.0060000472	0
3	55	0.0160011704	0
3	83	0.0210023384	0
3	113	0.0260023384	0
3	153	0.0310023384	0
3	183	0.0360023384	0
3	223	0.0410023384	0
3	253	0.0460023384	0
3	293	0.0510023384	0
3	323	0.0560023384	0
3	363	0.0610023384	0
3	401	0.0660023384	0
3	405	0.0660172568	0
3	421	0.066804526278	0
3	447	0.067591795756	0
3	466	0.068379065234	0
3	501	0.069166334712	0
3	528	0.06995360419	0
3	576	0.070740873668	0
3	591	0.0710172568	0
3	595	0.0710321752	0
3	618	0.0715024676	0
3	641	0.071819444678	0
3	664	0.072289737078	0
3	697	0.072606714156	0
3	727	0.073199078786	0
3	742	0.073393983634	0
3	777	0.073930312473	0
3	826	0.074717581951	0
3	892	0.075504851429	0
3	911	0.075755792068	0
3	930	0.0760321752	0
3	934	0.0760470936	0
3	968	0.076414659168	0
3	976	0.076517386	0
3	995	0.076834363078	0
3	1022	0.077201928646	0
3	1044	0.077304655478	0
3	1073	0.077621632556	0
3	1107	0.077989198124	0
3	1126	0.078213997186	0
3	1145	0.078408902034	0
3	1187	0.078770936523	0
3	1206	0.078945230873	0
3	1237	0.079307265362	0
3	1267	0.079669299851	0
3	1329	0.08009453484	0
3	1397	0.080770710468	0
3	1427	0.0810470936	0
3	1431	0.081062012	0
3	1472	0.081338388615	0
3	1480	0.081429577568	0
3	1488	0.0815323044	0
3	1522	0.081808681015	0
3	1530	0.081849281478	0
3	1561	0.082125658093	0
3	1569	0.082216847046	0
3	1587	0.082319573878	0
3	1624	0.082595950493	0
3	1632	0.082636550956	0
3	1670	0.082912927571	0
3	1688	0.083004116524	0
3	1711	0.083228915586	0
3	1736	0.083423820434	0
3	1770	0.083700197049	0
3	1789	0.083785854923	0
3	1816	0.083960149273	0
3	1899	0.084594980743	0
3	1940	0.084957015232	0
3	2007	0.085382250221	0
3	2090	0.086058425849	0
3	2094	0.0860769304	0
3	2142	0.086349727381	0
3	2145	0.086353307015	1
3	2146	0.086361783381	0
3	2154	0.086444495968	0
3	2169	0.0865472228	0
3	2203	0.086768371754	0
3	2211	0.086823599415	0
3	2219	0.086864199878	0
3	2264	0.087085348832	0
3	2272	0.087140576493	0
3	2276	0.087231765446	0
3	2295	0.087334492278	0
3	2318	0.087555641232	0
3	2344	0.087610868893	0
3	2348	0.087651469356	0
3	2385	0.08787261831	0
3	2400	0.087927845971	0
3	2422	0.088019034924	0
3	2449	0.088240183878	0
3	2452	0.088243833986	1
3	2453	0.088252239878	0
3	2486	0.088438738834	0
3	2523	0.088659887788	0
3	2542	0.088800773323	0
3	2576	0.088975067673	0
3	2621	0.089196216627	0
3	2723	0.089825783552	0
3	2790	0.090188793688	0
3	2864	0.090614028677	0
3	2940	0.0910918488	0
3	2981	0.091308708856	0
3	3003	0.091376701781	0
3	3011	0.091459414368	0
3	3023	0.0915621412	0
3	3067	0.091745042974	0
3	3071	0.091783290154	0
3	3083	0.091838517815	0
3	3091	0.091879118278	0
3	3128	0.092062020052	0
3	3136	0.092100267232	0
3	3147	0.092155494893	0
3	3159	0.092246683846	0
3	3189	0.092349410678	0
3	3208	0.092532312452	0
3	3212	0.092570559632	0
3	3231	0.092625787293	0
3	3239	0.092666387756	0
3	3276	0.09284928953	0
3	3284	0.09288753671	0
3	3295	0.092942764371	0
3	3313	0.093033953324	0
3	3355	0.093216855098	0
3	3359	0.093255102278	0
3	3370	0.093267158278	0
3	3407	0.093450060052	0
3	3441	0.093636559008	0
3	3471	0.093815691723	0
3	3501	0.093989986073	0
3	3542	0.094172887847	0
3	3595	0.094394036801	0
3	3711	0.095019496953	0
3	3779	0.095383138114	0
3	3880	0.095808373103	0
3	3977	0.096286193226	0
3	3996	0.096391620181	0
3	4004	0.096474332768	0
3	4030	0.0965770596	0
3	4063	0.096756485626	0
3	4066	0.096759961374	1
3	4067	0.096768541626	0
3	4071	0.096798208554	0
3	4087	0.096853436215	0
3	4098	0.096894036678	0
3	4146	0.097049570513	0
3	4150	0.097076938452	0
3	4158	0.097115185632	0
3	4162	0.097170413293	0
3	4181	0.097261602246	0
3	4218	0.097364329078	0
3	4245	0.097519862913	0
3	4253	0.097547230852	0
3	4261	0.097585478032	0
3	4277	0.097640705693	0
3	4284	0.097681306156	0
3	4310	0.097836839991	0
3	4314	0.09786420793	0
3	4326	0.09790245511	0
3	4337	0.097957682771	0
3	4363	0.098048871724	0
3	4397	0.098204405559	0
3	4401	0.098231773498	0
3	4412	0.098270020678	0
3	4423	0.098282076678	0
3	4475	0.098437610513	0
3	4479	0.098464978452	0
3	4509	0.098620512287	0
3	4554	0.098807011243	0
3	4581	0.098986143958	0
3	4628	0.099160438308	0
3	4659	0.099343340082	0
3	4729	0.099564489036	0
3	4950	0.100550774193	0
3	5068	0.100976009182	0
3	5161	0.101406538581	0
3	5176	0.101489251168	0
3	5203	0.101591978	0
3	5236	0.101744695679	0
3	5240	0.101783460026	0
3	5244	0.101813126954	0
3	5267	0.101868354615	0
3	5278	0.101908955078	0
3	5308	0.10204401534	0
3	5326	0.102064488913	0
3	5334	0.102091856852	0
3	5342	0.102130104032	0
3	5350	0.102185331693	0
3	5376	0.102276520646	0
3	5406	0.102379247478	0
3	5443	0.10251430774	0
3	5447	0.102534781313	0
3	5455	0.102562149252	0
3	5467	0.102600396432	0
3	5490	0.102655624093	0
3	5494	0.102696224556	0
3	5513	0.102831284818	0
3	5517	0.102851758391	0
3	5521	0.10287912633	0
3	5529	0.10291737351	0
3	5544	0.102972601171	0
3	5566	0.103063790124	0
3	5600	0.103198850386	0
3	5608	0.103219323959	0
3	5612	0.103246691898	0
3	5623	0.103284939078	0
3	5634	0.103296995078	0
3	5682	0.10343205534	0
3	5686	0.103452528913	0
3	5690	0.103479896852	0
3	5738	0.103614957114	0
3	5742	0.103635430687	0
3	5776	0.103770490949	0
3	5810	0.103956989905	0
3	5866	0.10413612262	0
3	5900	0.10431041697	0
3	5959	0.104493318744	0
3	6016	0.104714467698	0
3	6268	0.10569816525	0
3	6406	0.106123694051	0
3	6497	0.106504169568	0
3	6526	0.1066068964	0
3	6567	0.106739662869	0
3	6575	0.106798378426	0
3	6583	0.106828045354	0
3	6605	0.106883273015	0
3	6616	0.106923873478	0
3	6646	0.107043089834	0
3	6650	0.10705893374	0
3	6661	0.107079407313	0
3	6665	0.107106775252	0
3	6673	0.107145022432	0
3	6685	0.107200250093	0
3	6714	0.1072500472	0
3	6729	0.107291439046	0
3	6759	0.107394165878	0
3	6800	0.107513382234	0
3	6804	0.10752922614	0
3	6808	0.107549699713	0
3	6820	0.107577067652	0
3	6832	0.107615314832	0
3	6861	0.107670542493	0
3	6865	0.107711142956	0
3	6892	0.107830359312	0
3	6896	0.107846203218	0
3	6900	0.107866676791	0
3	6904	0.10789404473	0
3	6916	0.10793229191	0
3	6923	0.107987519571	0
3	6946	0.108078708524	0
3	6976	0.10819792488	0
3	6984	0.108213768786	0
3	6992	0.108234242359	0
3	7003	0.108261610298	0
3	7011	0.108299857478	0
3	7022	0.108311913478	0
3	7059	0.108431129834	0
3	7078	0.10844697374	0
3	7082	0.108467447313	0
3	7086	0.108494815252	0
3	7122	0.108614031608	0
3	7141	0.108650349087	0
3	7178	0.108769565443	0
3	7205	0.108904625705	0
3	7264	0.109091124661	0
3	7309	0.109270257376	0
3	7366	0.109444551726	0
3	7419	0.1096274535	0
3	7500	0.109848602454	0
3	7784	0.110830212024	0
3	7929	0.1112559505	0
3	8030	0.1116218148	0
3	8063	0.111739152849	0
3	8079	0.111813296826	0
3	8087	0.111842963754	0
3	8112	0.111898191415	0
3	8127	0.111938791878	0
3	8149	0.112056129927	0
3	8153	0.11207385214	0
3	8164	0.112094325713	0
3	8172	0.112121693652	0
3	8184	0.112159940832	0
3	8199	0.112215168493	0
3	8236	0.112306357446	0
3	8273	0.112409084278	0
3	8321	0.112515711387	0
3	8325	0.112528300634	0
3	8329	0.11254414454	0
3	8333	0.112564618113	0
3	8345	0.112591986052	0
3	8364	0.112630233232	0
3	8387	0.112685460893	0
3	8391	0.112726061356	0
3	8421	0.112832688465	0
3	8425	0.112845277712	0
3	8429	0.112861121618	0
3	8437	0.112881595191	0
3	8445	0.11290896313	0
3	8456	0.11294721031	0
3	8460	0.113002437971	0
3	8484	0.113093626924	0
3	8510	0.113200254033	0
3	8518	0.11321284328	0
3	8522	0.113228687186	0
3	8530	0.113249160759	0
3	8541	0.113276528698	0
3	8548	0.113314775878	0
3	8559	0.113326831878	0
3	8605	0.113433458987	0
3	8609	0.113446048234	0
3	8627	0.11346189214	0
3	8631	0.113482365713	0
3	8635	0.113509733652	0
3	8672	0.113616360761	0
3	8676	0.113628950008	0
3	8690	0.113665267487	0
3	8732	0.113771894596	0
3	8762	0.113891110952	0
3	8797	0.114026171214	0
3	8866	0.11421267017	0
3	8918	0.114391802885	0
3	8967	0.114566097235	0
3	9031	0.114748999009	0
3	9116	0.114970147963	0
3	9435	0.115950059574	0
3	9581	0.116375950721	0
3	9711	0.116741815021	0
3	9719	0.116828215226	0
3	9734	0.116857882154	0
3	9771	0.116913109815	0
3	9782	0.116953710278	0
3	9804	0.117058792099	0
3	9812	0.11708877054	0
3	9823	0.117109244113	0
3	9827	0.117136612052	0
3	9831	0.117174859232	0
3	9857	0.117230086893	0
3	9890	0.117321275846	0
3	9920	0.117417684673	0
3	9923	0.117424002678	1
3	9928	0.117429740673	0
3	9979	0.117520411505	0
3	9989	0.117530629787	1
3	9990	0.117532467505	0
3	9993	0.117543219034	1
3	9994	0.117544523505	0
3	9998	0.11755906294	0
3	10006	0.117579536513	0
3	10018	0.117606904452	0
3	10040	0.117645151632	0
3	10059	0.117700379293	0
3	10063	0.117740979756	0
3	10086	0.117837388583	0
3	10089	0.117847606865	1
3	10090	0.117849444583	0
3	10093	0.117860196112	1
3	10094	0.117861500583	0
3	10098	0.117876040018	0
3	10113	0.117896513591	0
3	10120	0.11792388153	0
3	10132	0.11796212871	0
3	10144	0.118017356371	0
3	10171	0.118108545324	0
3	10187	0.118204954151	0
3	10194	0.118215172433	1
3	10195	0.118217010151	0
3	10201	0.11822776168	1
3	10202	0.118229066151	0
3	10206	0.118243605586	0
3	10221	0.118264079159	0
3	10225	0.118291447098	0
3	10233	0.118329694278	0
3	10244	0.118341750278	0
3	10289	0.118438159105	0
3	10292	0.118448377387	1
3	10293	0.118450215105	0
3	10296	0.118460966634	1
3	10297	0.118462271105	0
3	10316	0.11847681054	0
3	10320	0.118497284113	0
3	10328	0.118524652052	0
3	10356	0.118621060879	0
3	10368	0.118643868408	0
3	10383	0.118680185887	0
3	10423	0.118776594714	0
3	10451	0.118883221823	0
3	10496	0.119002438179	0
3	10558	0.119137498441	0
3	10599	0.119323997397	0
3	10676	0.119503130112	0
3	10718	0.119677424462	0
3	10803	0.119860326236	0
3	10907	0.12008147519	0
3	11391	0.121486000355	0
3	11512	0.121843133626	0
3	11531	0.121872800554	0
3	11560	0.121928028215	0
3	11571	0.121968628678	0
3	11601	0.122063759912	0
3	11605	0.12210368894	0
3	11620	0.122124162513	0
3	11628	0.122151530452	0
3	11632	0.122189777632	0
3	11661	0.122245005293	0
3	11664	0.1222511704	1
3	11665	0.122257061293	0
3	11690	0.122332972016	0
3	11693	0.122336194246	1
3	11705	0.122345028016	0
3	11728	0.122424160969	0
3	11731	0.122432603073	1
3	11732	0.122436216969	0
3	11743	0.122444659073	1
3	11744	0.122448272969	0
3	11787	0.122532625796	0
3	11790	0.122535329905	1
3	11798	0.122544681796	0
3	11801	0.122547385905	1
3	11802	0.122556737796	0
3	11805	0.122559441905	1
3	11806	0.122568793796	0
3	11809	0.12257398134	1
3	11814	0.122580849796	0
3	11818	0.122594454913	0
3	11830	0.122621822852	0
3	11852	0.122660070032	0
3	11875	0.122715297693	0
3	11879	0.122755898156	0
3	11898	0.122843864879	0
3	11905	0.122852306983	1
3	11906	0.122855920879	0
3	11913	0.122864362983	1
3	11914	0.122867976879	0
3	11921	0.122876418983	1
3	11926	0.122880032879	0
3	11929	0.122890958418	1
3	11930	0.122892088879	0
3	11937	0.122911431991	0
3	11945	0.12293879993	0
3	11957	0.12297704711	0
3	11975	0.123032274771	0
3	12011	0.123120241494	0
3	12014	0.123123463724	1
3	12015	0.123132297494	0
3	12030	0.123211430447	0
3	12038	0.123231928551	0
3	12046	0.123243984551	0
3	12050	0.123258523986	0
3	12058	0.123278997559	0
3	12062	0.123306365498	0
3	12069	0.123344612678	0
3	12083	0.123356668678	0
3	12126	0.123444635401	0
3	12134	0.123465133505	0
3	12138	0.123477189505	0
3	12153	0.12349172894	0
3	12157	0.123512202513	0
3	12164	0.123539570452	0
3	12190	0.123627537175	0
3	12209	0.123658786808	0
3	12223	0.123695104287	0
3	12261	0.12378307101	0
3	12298	0.123879479837	0
3	12335	0.123986106946	0
3	12397	0.124105323302	0
3	12445	0.124240383564	0
3	12514	0.12442688252	0
3	12559	0.124606015235	0
3	12633	0.124780309585	0
3	12709	0.124963211359	0
3	12828	0.125184360313	0
3	13356	0.126587740219	0
3	13458	0.126887718954	0
3	13491	0.126942946615	0
3	13502	0.126983547078	0
3	13524	0.127070453913	0
3	13532	0.12711860734	0
3	13555	0.127139080913	0
3	13566	0.127166448852	0
3	13570	0.127204696032	0
3	13588	0.1272523384	0
3	13602	0.127259923693	1
3	13603	0.1272643944	0
3	13632	0.127346830528	0
3	13643	0.127359946416	0
3	13658	0.127439079369	0
3	13666	0.127451135369	0
3	13685	0.127463191369	0
3	13725	0.127544079886	0
3	13728	0.127547544196	1
3	13736	0.127556135886	0
3	13739	0.127559600196	1
3	13740	0.127568191886	0
3	13743	0.127571656196	1
3	13744	0.127580247886	0
3	13750	0.127583712196	1
3	13752	0.127592303886	0
3	13755	0.127595768196	1
3	13756	0.127604359886	0
3	13759	0.127609373313	1
3	13760	0.127616415886	0
3	13776	0.127636741252	0
3	13798	0.127674988432	0
3	13821	0.127730216093	0
3	13829	0.127770816556	0
3	13848	0.127851705073	0
3	13851	0.127858783279	1
3	13856	0.127863761073	0
3	13859	0.127870839279	1
3	13864	0.127875817073	0
3	13871	0.127882895279	1
3	13872	0.127887873073	0
3	13878	0.127894951279	1
3	13879	0.127899929073	0
3	13882	0.127907007279	1
3	13883	0.127911985073	0
3	13887	0.127926350391	0
3	13895	0.12795371833	0
3	13915	0.12799196551	0
3	13922	0.128047193171	0
3	13964	0.128128081688	0
3	13971	0.128135159894	1
3	13972	0.128140137688	0
3	13975	0.128147215894	1
3	13980	0.128152193688	0
3	13996	0.128226348847	0
3	14004	0.128246846951	0
3	14011	0.128258902951	0
3	14015	0.128273442386	0
3	14023	0.128293915959	0
3	14027	0.128321283898	0
3	14035	0.128359531078	0
3	14043	0.128371587078	0
3	14081	0.128452475595	0
3	14091	0.128459553801	1
3	14092	0.128464531595	0
3	14100	0.128480051905	0
3	14104	0.128492107905	0
3	14119	0.12850664734	0
3	14127	0.128527120913	0
3	14131	0.128554488852	0
3	14156	0.128635377369	0
3	14163	0.128642455575	1
3	14164	0.128647433369	0
3	14183	0.128673705208	0
3	14198	0.128710022687	0
3	14232	0.128790911204	0
3	14269	0.128878877927	0
3	14295	0.128975286754	0
3	14358	0.129081913863	0
3	14423	0.129201130219	0
3	14453	0.129336190481	0
3	14540	0.129522689437	0
3	14596	0.129701822152	0
3	14673	0.129876116502	0
3	14777	0.130059018276	0
3	14880	0.13028016723	0
3	15453	0.131682598589	0
3	15562	0.131957865015	0
3	15577	0.131998465478	0
3	15599	0.132078470796	0
3	15607	0.13213352574	0
3	15624	0.132153999313	0
3	15636	0.132181367252	0
3	15652	0.132219614432	0
3	15663	0.1322523384	0
3	15685	0.1322793128	0
3	15732	0.132453997769	0
3	15739	0.132466053769	0
3	15751	0.132478109769	0
3	15798	0.132558115087	0
3	15801	0.132559320687	1
3	15809	0.132570171087	0
3	15812	0.132571054286	1
3	15817	0.132582227087	0
3	15820	0.132583110286	1
3	15825	0.132594283087	0
3	15828	0.132595166286	1
3	15829	0.132606339087	0
3	15832	0.132607222286	1
3	15833	0.132618395087	0
3	15836	0.132619278286	1
3	15837	0.132630451087	0
3	15840	0.132631334286	1
3	15841	0.132642507087	0
3	15855	0.132651659652	1
3	15856	0.132654563087	0
3	15878	0.132689906832	0
3	15901	0.132745134493	0
3	15913	0.132785734956	0
3	15932	0.132865740274	0
3	15935	0.132866945874	1
3	15936	0.132877796274	0
3	15939	0.132878679473	1
3	15948	0.132889852274	0
3	15951	0.132890735473	1
3	15955	0.132901908274	0
3	15958	0.132902791473	1
3	15959	0.132913964274	0
3	15962	0.132914847473	1
3	15963	0.132926020274	0
3	15966	0.132926903473	1
3	15967	0.132938076274	0
3	15970	0.132941268791	1
3	15971	0.132950132274	0
3	15979	0.13296863673	0
3	15998	0.13300688391	0
3	16002	0.133062111571	0
3	16041	0.133142116889	0
3	16052	0.133155056088	0
3	16060	0.133167112088	0
3	16083	0.133241267247	0
3	16091	0.133261765351	0
3	16095	0.133273821351	0
3	16099	0.133288360786	0
3	16115	0.133308834359	0
3	16119	0.133336202298	0
3	16126	0.133374449478	0
3	16134	0.133386505478	0
3	16170	0.133466510796	0
3	16181	0.133479449995	0
3	16189	0.133494970305	0
3	16193	0.133507026305	0
3	16208	0.13352156574	0
3	16215	0.133542039313	0
3	16219	0.133569407252	0
3	16245	0.13364941257	0
3	16253	0.133662351769	0
3	16272	0.133688623608	0
3	16286	0.133724941087	0
3	16324	0.133804946405	0
3	16336	0.133885834922	0
3	16362	0.133973801645	0
3	16404	0.134070210472	0
3	16490	0.134176837581	0
3	16523	0.134296053937	0
3	16581	0.134431114199	0
3	16647	0.134617613155	0
3	16721	0.13479674587	0
3	16772	0.13497104022	0
3	16896	0.135153941994	0
3	16975	0.135375090948	0
3	17568	0.13677667928	0
3	17587	0.136855841571	0
3	17641	0.136935003862	0
3	17681	0.137013383878	0
3	17703	0.137089978287	0
3	17711	0.13714844414	0
3	17732	0.137168917713	0
3	17748	0.137196285652	0
3	17752	0.137234532832	0
3	17756	0.1372523384	0
3	17789	0.1372942312	0
3	17863	0.137493028169	0
3	17906	0.137572219318	0
3	17909	0.137573424918	1
3	17916	0.137584275318	0
3	17920	0.137585089487	1
3	17921	0.137596331318	0
3	17924	0.137597145487	1
3	17929	0.137608387318	0
3	17932	0.137609201487	1
3	17933	0.137620443318	0
3	17936	0.137621257487	1
3	17941	0.137632499318	0
3	17944	0.137633313487	1
3	17945	0.137644555318	0
3	17948	0.137645369487	1
3	17949	0.137656611318	0
3	17952	0.137657425487	1
3	17972	0.137668667318	0
3	17975	0.137669481487	1
3	17983	0.137680723318	0
3	17998	0.137704825232	0
3	18017	0.137760052893	0
3	18029	0.137800653356	0
3	18052	0.137877248495	0
3	18055	0.137880658674	1
3	18060	0.137889304495	0
3	18063	0.137892714674	1
3	18075	0.137901360495	0
3	18078	0.137904770674	1
3	18079	0.137913416495	0
3	18082	0.137916826674	1
3	18083	0.137925472495	0
3	18086	0.137928882674	1
3	18087	0.137937528495	0
3	18090	0.137940938674	1
3	18091	0.137949584495	0
3	18094	0.137952994674	1
3	18095	0.137961640495	0
3	18098	0.137965050674	1
3	18099	0.137973696495	0
3	18106	0.13798355513	1
3	18111	0.137985752495	0
3	18126	0.13802180231	0
3	18134	0.138077029971	0
3	18169	0.13815362511	0
3	18175	0.138157035289	1
3	18181	0.13816568111	0
3	18192	0.138169974488	1
3	18193	0.13817773711	0
3	18200	0.138182030488	1
3	18201	0.13818979311	0
3	18220	0.138256185647	0
3	18232	0.138276683751	0
3	18236	0.138288739751	0
3	18247	0.138303279186	0
3	18262	0.138323752759	0
3	18266	0.138351120698	0
3	18284	0.138389367878	0
3	18292	0.138401423878	0
3	18331	0.138478019017	0
3	18334	0.138481429196	1
3	18339	0.138490075017	0
3	18342	0.138494368395	1
3	18347	0.138502131017	0
3	18350	0.138509888705	1
3	18351	0.138514187017	0
3	18354	0.138521944705	1
3	18355	0.138526243017	0
3	18369	0.13853648414	1
3	18370	0.138538299017	0
3	18374	0.138556957713	0
3	18378	0.138584325652	0
3	18396	0.138660920791	0
3	18406	0.13866433097	1
3	18411	0.138672976791	0
3	18414	0.138677270169	1
3	18426	0.138685032791	0
3	18438	0.138703542008	0
3	18449	0.138739859487	0
3	18485	0.138816454626	0
3	18489	0.138819864805	1
3	18490	0.138828510626	0
3	18502	0.138896459944	0
3	18505	0.138900753322	1
3	18510	0.138908515944	0
3	18518	0.138977348461	0
3	18524	0.138988720045	1
3	18525	0.138989404461	0
3	18560	0.139065315184	0
3	18568	0.139085128872	0
3	18625	0.139161724011	0
3	18654	0.139191755981	0
3	18684	0.13926835112	0
3	18699	0.139310972337	0
3	19824	0.141867477739	0
3	19827	0.141870759971	1
3	19828	0.141879533739	0
3	19879	0.141944274252	0
3	19926	0.142023436543	0
3	19952	0.142101816559	0
3	19956	0.14216336254	0
3	19982	0.142183836113	0
3	20004	0.142211204052	0
3	20008	0.142249451232	0
3	20011	0.1422523384	1
3	20012	0.142261507232	0
3	20045	0.1423091496	0
3	20164	0.142611249718	0
3	20172	0.142623305718	0
3	20176	0.142635361718	0
3	20180	0.142647417718	0
3	20184	0.142659473718	0
3	20188	0.142671529718	0
3	20203	0.142683585718	0
3	20214	0.142695641718	0
3	20236	0.142719743632	0
3	20263	0.142774971293	0
3	20267	0.142815571756	0
3	20289	0.142889086715	0
3	20292	0.142892166895	1
3	20293	0.142901142715	0
3	20296	0.142904222895	1
3	20304	0.142913198715	0
3	20307	0.142916278895	1
3	20315	0.142925254715	0
3	20318	0.142928334895	1
3	20319	0.142937310715	0
3	20322	0.142940390895	1
3	20323	0.142949366715	0
3	20326	0.142952446895	1
3	20327	0.142961422715	0
3	20330	0.142964502895	1
3	20331	0.142973478715	0
3	20334	0.142976558895	1
3	20335	0.142985534715	0
3	20338	0.142988614895	1
3	20346	0.142997590715	0
3	20349	0.143000670895	1
3	20357	0.143009646715	0
3	20361	0.14303672071	0
3	20372	0.143091948371	0
3	20399	0.14316546333	0
3	20402	0.14316854351	1
3	20414	0.14317751933	0
3	20417	0.14318059951	1
3	20422	0.14318957533	0
3	20425	0.14319265551	1
3	20430	0.14320163133	0
3	20433	0.14320471151	1
3	20445	0.14321368733	0
3	20453	0.143271104047	0
3	20468	0.143291602151	0
3	20472	0.143303658151	0
3	20476	0.143318197586	0
3	20491	0.143338671159	0
3	20495	0.143366039098	0
3	20521	0.143404286278	0
3	20529	0.143416342278	0
3	20564	0.143489857237	0
3	20567	0.143492937417	1
3	20572	0.143501913237	0
3	20575	0.143504993417	1
3	20580	0.143513969237	0
3	20583	0.143517049417	1
3	20588	0.143526025237	0
3	20591	0.143529105417	1
3	20599	0.143538081237	0
3	20602	0.143541161417	1
3	20607	0.143550137237	0
3	20610	0.143553217417	1
3	20611	0.143562193237	0
3	20614	0.143571876113	1
3	20615	0.143574249237	0
3	20619	0.143599244052	0
3	20634	0.143672759011	0
3	20649	0.143687895191	0
3	20664	0.143699951191	0
3	20676	0.143718460408	0
3	20691	0.143754777887	0
3	20721	0.143828292846	0
3	20729	0.143843429026	0
3	20741	0.143911378344	0
3	20749	0.143923434344	0
3	20757	0.143992266861	0
3	20765	0.144004322861	0
3	20793	0.14407783782	0
3	20801	0.144100047272	0
3	20844	0.144173562231	0
3	20870	0.144206674381	0
3	20900	0.14428018934	0
3	20911	0.144325890737	0
3	20938	0.144399405696	0
3	22053	0.146894452139	0
3	22108	0.146959192652	0
3	22162	0.147029907453	0
3	22165	0.147038354943	1
3	22166	0.147041963453	0
3	22188	0.147109069744	0
3	22195	0.147116734959	1
3	22196	0.147121125744	0
3	22204	0.14717828094	0
3	22226	0.147198754513	0
3	22248	0.147226122452	0
3	22259	0.1472523384	0
3	22262	0.147264369632	1
3	22263	0.1472643944	0
3	22296	0.147324068	0
3	22430	0.147650280118	0
3	22434	0.147662336118	0
3	22438	0.147674392118	0
3	22446	0.147686448118	0
3	22457	0.147698504118	0
3	22468	0.147710560118	0
3	22490	0.147734662032	0
3	22517	0.147789889693	0
3	22521	0.147830490156	0
3	22543	0.147901204957	0
3	22546	0.147904005115	1
3	22547	0.147913260957	0
3	22550	0.147916061115	1
3	22557	0.147925316957	0
3	22561	0.147928117115	1
3	22568	0.147937372957	0
3	22572	0.147940173115	1
3	22573	0.147949428957	0
3	22576	0.147952229115	1
3	22577	0.147961484957	0
3	22580	0.147964285115	1
3	22581	0.147973540957	0
3	22584	0.147976341115	1
3	22585	0.147985596957	0
3	22588	0.147988397115	1
3	22589	0.147997652957	0
3	22592	0.148000453115	1
3	22600	0.148009708957	0
3	22603	0.148012509115	1
3	22611	0.148021764957	0
3	22614	0.148024565115	1
3	22615	0.148033820957	0
3	22619	0.14805163911	0
3	22630	0.148106866771	0
3	22649	0.148177581572	0
3	22652	0.14818038173	1
3	22664	0.148189637572	0
3	22667	0.14819243773	1
3	22672	0.148201693572	0
3	22675	0.14820449373	1
3	22680	0.148213749572	0
3	22683	0.14821654973	1
3	22695	0.148225805572	0
3	22698	0.14822860573	1
3	22699	0.148237861572	0
3	22707	0.148286022447	0
3	22722	0.148306520551	0
3	22726	0.148318576551	0
3	22730	0.148333115986	0
3	22745	0.148353589559	0
3	22749	0.148380957498	0
3	22771	0.148419204678	0
3	22779	0.148431260678	0
3	22818	0.148501975479	0
3	22826	0.148516831637	0
3	22834	0.148528887637	0
3	22842	0.148540943637	0
3	22857	0.148552999637	0
3	22872	0.148565055637	0
3	22876	0.148577111637	0
3	22880	0.148589167637	0
3	22884	0.148614162452	0
3	22906	0.148684877253	0
3	22924	0.148702813591	0
3	22939	0.148714869591	0
3	22948	0.148733378808	0
3	22967	0.148769696287	0
3	22997	0.148840411088	0
3	23005	0.148858347426	0
3	23017	0.148926296744	0
3	23025	0.148938352744	0
3	23033	0.149007185261	0
3	23041	0.149019241261	0
3	23068	0.149089956062	0
3	23077	0.149114965672	0
3	23099	0.149185680473	0
3	23132	0.149221592781	0
3	23162	0.149292307582	0
3	23173	0.149340809137	0
3	23196	0.149411523938	0
3	23254	0.149485038897	0
3	24403	0.151974111052	0
3	24461	0.152042178583	0
3	24464	0.152044825853	1
3	24472	0.152054234583	0
3	24475	0.152056881853	1
3	24482	0.152066290583	0
3	24498	0.152123988144	0
3	24506	0.152136044144	0
3	24521	0.15219319934	0
3	24536	0.152213672913	0
3	24565	0.152241040852	0
3	24574	0.1522523384	1
3	24576	0.152253096852	0
3	24584	0.1522793128	0
3	24613	0.1523389864	0
3	24751	0.152677254518	0
3	24755	0.152689310518	0
3	24766	0.152701366518	0
3	24774	0.152713422518	0
3	24785	0.152725478518	0
3	24807	0.152749580432	0
3	24834	0.152804808093	0
3	24838	0.152845408556	0
3	24860	0.152913476087	0
3	24863	0.152916123357	1
3	24864	0.152925532087	0
3	24867	0.152928179357	1
3	24868	0.152937588087	0
3	24877	0.152940235357	1
3	24879	0.152949644087	0
3	24888	0.152952291357	1
3	24890	0.152961700087	0
3	24893	0.152964347357	1
3	24894	0.152973756087	0
3	24897	0.152976403357	1
3	24898	0.152985812087	0
3	24901	0.152988459357	1
3	24902	0.152997868087	0
3	24905	0.153000515357	1
3	24906	0.153009924087	0
3	24909	0.153012571357	1
3	24917	0.153021980087	0
3	24920	0.153024627357	1
3	24927	0.153034036087	0
3	24931	0.153036683357	1
3	24932	0.153046092087	0
3	24935	0.153048739357	1
3	24936	0.153058148087	0
3	24939	0.15306655751	1
3	24940	0.153070204087	0
3	24951	0.153121785171	0
3	24965	0.153189852702	0
3	24969	0.153192499972	1
3	24980	0.153201908702	0
3	24984	0.153204555972	1
3	24988	0.153213964702	0
3	24992	0.153216611972	1
3	24996	0.153226020702	0
3	25000	0.153228667972	1
3	25011	0.153238076702	0
3	25015	0.153240723972	1
3	25016	0.153250132702	0
3	25019	0.153252779972	1
3	25023	0.153262188702	0
3	25028	0.153300940847	0
3	25043	0.153321438951	0
3	25047	0.153333494951	0
3	25051	0.153348034386	0
3	25066	0.153368507959	0
3	25070	0.153395875898	0
3	25085	0.153434123078	0
3	25093	0.153446179078	0
3	25135	0.153514246609	0
3	25143	0.153531750037	0
3	25151	0.153543806037	0
3	25166	0.153555862037	0
3	25184	0.153567918037	0
3	25200	0.153579974037	0
3	25208	0.153592030037	0
3	25212	0.153604086037	0
3	25216	0.153629080852	0
3	25238	0.153697148383	0
3	25257	0.153717731991	0
3	25272	0.153729787991	0
3	25280	0.153748297208	0
3	25303	0.153784614687	0
3	25333	0.153852682218	0
3	25341	0.153873265826	0
3	25353	0.153941215144	0
3	25361	0.153953271144	0
3	25369	0.154021338675	0
3	25377	0.154034159661	0
3	25401	0.154102227192	0
3	25413	0.154129884072	0
3	25428	0.154197951603	0
3	25461	0.154236511181	0
3	25491	0.154304578712	0
3	25502	0.154355727537	0
3	25521	0.154423795068	0
3	25579	0.154494509869	0
3	25641	0.154568024828	0
3	26809	0.157056650791	0
3	26812	0.157057856391	1
3	26820	0.157068706791	0
3	26823	0.157069152983	1
3	26831	0.157080762791	0
3	26834	0.157081208983	1
3	26846	0.157092818791	0
3	26861	0.157138906544	0
3	26869	0.157150962544	0
3	26884	0.15720811774	0
3	26905	0.157228591313	0
3	26927	0.1572523384	0
3	26931	0.157255959252	1
3	26938	0.1572643944	0
3	26954	0.1572942312	0
3	26983	0.1573539048	0
3	27012	0.15742153908	0
3	27140	0.157716284918	0
3	27148	0.157728340918	0
3	27159	0.157740396918	0
3	27184	0.157764498832	0
3	27208	0.157819726493	0
3	27212	0.157860326956	0
3	27234	0.157926058412	0
3	27237	0.157928394487	1
3	27242	0.157938114412	0
3	27245	0.157940450487	1
3	27246	0.157950170412	0
3	27249	0.157952506487	1
3	27257	0.157962226412	0
3	27260	0.157964562487	1
3	27268	0.157974282412	0
3	27271	0.157976618487	1
3	27272	0.157986338412	0
3	27275	0.157988674487	1
3	27276	0.157998394412	0
3	27279	0.158000730487	1
3	27280	0.158010450412	0
3	27283	0.158012786487	1
3	27284	0.158022506412	0
3	27287	0.158024842487	1
3	27292	0.158034562412	0
3	27298	0.158036898487	1
3	27299	0.158046618412	0
3	27308	0.158048954487	1
3	27310	0.158058674412	0
3	27313	0.158061010487	1
3	27314	0.158070730412	0
3	27317	0.158073066487	1
3	27318	0.158082786412	0
3	27321	0.158085122487	1
3	27322	0.158094842412	0
3	27333	0.158136703571	0
3	27344	0.158202435027	0
3	27347	0.158204771102	1
3	27355	0.158214491027	0
3	27358	0.158216827102	1
3	27359	0.158226547027	0
3	27365	0.158228883102	1
3	27367	0.158238603027	0
3	27373	0.158240939102	1
3	27381	0.158250659027	0
3	27388	0.158252995102	1
3	27390	0.158262715027	0
3	27393	0.158265051102	1
3	27394	0.158274771027	0
3	27400	0.158277107102	1
3	27402	0.158286827027	0
3	27406	0.158315859247	0
3	27421	0.158336357351	0
3	27425	0.158348413351	0
3	27429	0.158362952786	0
3	27444	0.158383426359	0
3	27448	0.158410794298	0
3	27463	0.158449041478	0
3	27471	0.158461097478	0
3	27506	0.158526828934	0
3	27509	0.158529165009	1
3	27514	0.158538884934	0
3	27520	0.158546668437	1
3	27522	0.158550940934	0
3	27528	0.158558724437	1
3	27530	0.158562996934	0
3	27543	0.158570780437	1
3	27548	0.158575052934	0
3	27565	0.158582836437	1
3	27567	0.158587108934	0
3	27580	0.158594892437	1
3	27582	0.158599164934	0
3	27595	0.158606948437	1
3	27597	0.158611220934	0
3	27600	0.158619004437	1
3	27601	0.158623276934	0
3	27605	0.158643999252	0
3	27631	0.158709730708	0
3	27650	0.158732650391	0
3	27665	0.158744706391	0
3	27676	0.158763215608	0
3	27699	0.158799533087	0
3	27723	0.158865264543	0
3	27738	0.158888184226	0
3	27757	0.158953915682	0
3	27765	0.158968189544	0
3	27773	0.159033921	0
3	27781	0.159049078061	0
3	27809	0.159114809517	0
3	27821	0.159144802472	0
3	27829	0.159210533928	0
3	27855	0.159251429581	0
3	27885	0.159317161037	0
3	27896	0.159370645937	0
3	27915	0.159436377393	0
3	27969	0.159504444924	0
3	28027	0.159575159725	0
3	28068	0.159648674684	0
3	29282	0.162083625191	0
3	29297	0.162095681191	0
3	29308	0.162107737191	0
3	29330	0.162153824944	0
3	29342	0.162165880944	0
3	29357	0.16222303614	0
3	29379	0.162243509713	0
3	29388	0.1622523384	1
3	29390	0.162255565713	0
3	29412	0.1622793128	0
3	29422	0.1623091496	0
3	29443	0.1623688232	0
3	29472	0.162434190094	0
3	29475	0.16243645748	1
3	29476	0.162446246094	0
3	29498	0.162501824374	0
3	29527	0.162567191268	0
3	29582	0.162632558162	0
3	29612	0.162697925056	0
3	29623	0.162731203318	0
3	29631	0.162743259318	0
3	29642	0.162755315318	0
3	29672	0.162779417232	0
3	29691	0.162834644893	0
3	29695	0.162875245356	0
3	29717	0.162938833197	0
3	29720	0.162940976812	1
3	29725	0.162950889197	0
3	29728	0.162953032812	1
3	29733	0.162962945197	0
3	29736	0.162965088812	1
3	29744	0.162975001197	0
3	29747	0.162977144812	1
3	29755	0.162987057197	0
3	29758	0.162989200812	1
3	29759	0.162999113197	0
3	29762	0.163001256812	1
3	29763	0.163011169197	0
3	29766	0.163013312812	1
3	29771	0.163023225197	0
3	29774	0.163025368812	1
3	29775	0.163035281197	0
3	29778	0.163037424812	1
3	29783	0.163047337197	0
3	29789	0.163049480812	1
3	29790	0.163059393197	0
3	29793	0.163061536812	1
3	29801	0.163071449197	0
3	29804	0.163073592812	1
3	29809	0.163083505197	0
3	29812	0.163085648812	1
3	29813	0.163095561197	0
3	29816	0.163097704812	1
3	29817	0.163107617197	0
3	29820	0.163109760812	1
3	29821	0.163119673197	0
3	29836	0.163151621971	0
3	29851	0.163215209812	0
3	29854	0.163217353427	1
3	29862	0.163227265812	0
3	29865	0.163229409427	1
3	29866	0.163239321812	0
3	29869	0.163241465427	1
3	29874	0.163251377812	0
3	29877	0.163253521427	1
3	29882	0.163263433812	0
3	29891	0.163265577427	1
3	29897	0.163275489812	0
3	29916	0.163363331751	0
3	29920	0.163377871186	0
3	29935	0.163398344759	0
3	29939	0.163425712698	0
3	29957	0.163463959878	0
3	29965	0.163476015878	0
3	29997	0.163539603719	0
3	30005	0.163553803334	0
3	30013	0.163565859334	0
3	30021	0.163577915334	0
3	30036	0.163589971334	0
3	30051	0.163602027334	0
3	30066	0.163614083334	0
3	30081	0.163626139334	0
3	30089	0.163638195334	0
3	30097	0.163658917652	0
3	30122	0.163722505493	0
3	30145	0.163747568791	0
3	30160	0.163759624791	0
3	30172	0.163778134008	0
3	30187	0.163814451487	0
3	30202	0.163878039328	0
3	30217	0.163903102626	0
3	30243	0.163966690467	0
3	30251	0.163983107944	0
3	30266	0.164046695785	0
3	30274	0.164063996461	0
3	30309	0.164127584302	0
3	30328	0.164159720872	0
3	30343	0.164223308713	0
3	30369	0.164266347981	0
3	30399	0.164329935822	0
3	30410	0.164385564337	0
3	30429	0.164449152178	0
3	30483	0.164514883634	0
3	30530	0.164582951165	0
3	30585	0.164653665966	0
3	30608	0.164727180925	0
3	31812	0.167110599591	0
3	31823	0.167122655591	0
3	31849	0.167168743344	0
3	31857	0.167180799344	0
3	31872	0.16723795454	0
3	31887	0.1672523384	0
3	31897	0.167258428113	1
3	31898	0.1672643944	0
3	31931	0.1672942312	0
3	31935	0.167324068	0
3	31950	0.1673837416	0
3	31979	0.167446937651	0
3	31983	0.167461164494	0
3	32005	0.167516742774	0
3	32037	0.167579938825	0
3	32089	0.167645305719	0
3	32119	0.167710672613	0
3	32138	0.167746121718	0
3	32146	0.167758177718	0
3	32165	0.167770233718	0
3	32187	0.167794335632	0
3	32206	0.167849563293	0
3	32213	0.167890163756	0
3	32232	0.167953359807	0
3	32240	0.167965807597	0
3	32248	0.167977863597	0
3	32259	0.167989919597	0
3	32270	0.168001975597	0
3	32274	0.168014031597	0
3	32278	0.168026087597	0
3	32286	0.168038143597	0
3	32290	0.168050199597	0
3	32301	0.168062255597	0
3	32305	0.168074311597	0
3	32316	0.168086367597	0
3	32324	0.168098423597	0
3	32328	0.168110479597	0
3	32332	0.168122535597	0
3	32336	0.168134591597	0
3	32351	0.168166540371	0
3	32366	0.168229736422	0
3	32377	0.168242184212	0
3	32381	0.168254240212	0
3	32389	0.168266296212	0
3	32397	0.168278352212	0
3	32412	0.168290408212	0
3	32427	0.168353604263	0
3	32435	0.168392789586	0
3	32450	0.168413263159	0
3	32454	0.168440631098	0
3	32472	0.168478878278	0
3	32480	0.168490934278	0
3	32512	0.168552465996	0
3	32515	0.168554522119	1
3	32520	0.168564521996	0
3	32523	0.168568721734	1
3	32528	0.168576577996	0
3	32531	0.168580777734	1
3	32536	0.168588633996	0
3	32543	0.168592833734	1
3	32551	0.168600689996	0
3	32554	0.168604889734	1
3	32559	0.168612745996	0
3	32562	0.168616945734	1
3	32574	0.168624801996	0
3	32577	0.168629001734	1
3	32589	0.168636857996	0
3	32592	0.168641057734	1
3	32597	0.168648913996	0
3	32600	0.168653113734	1
3	32605	0.168660969996	0
3	32612	0.168673836052	0
3	32638	0.16873536777	0
3	32641	0.168737423893	1
3	32649	0.16874742377	0
3	32664	0.168762487191	0
3	32672	0.168774543191	0
3	32691	0.168793052408	0
3	32710	0.168829369887	0
3	32725	0.168890901605	0
3	32740	0.168918021026	0
3	32766	0.168979552744	0
3	32774	0.168998026344	0
3	32789	0.169059558062	0
3	32801	0.169078914861	0
3	32832	0.169140446579	0
3	32855	0.169174639272	0
3	32870	0.16923617099	0
3	32900	0.169281266381	0
3	32930	0.169342798099	0
3	32941	0.169400482737	0
3	32960	0.169462014455	0
3	33007	0.169525602296	0
3	33060	0.169591333752	0
3	33112	0.169659401283	0
3	33135	0.169730116084	0
3	33190	0.169803631043	0
3	34398	0.172137573991	0
3	34424	0.172183661744	0
3	34432	0.172195717744	0
3	34451	0.1722523384	0
3	34454	0.17225287294	1
3	34462	0.1722643944	0
3	34476	0.172270484113	1
3	34477	0.1722764504	0
3	34480	0.1722793128	1
3	34488	0.1722885064	0
3	34510	0.1723091496	0
3	34518	0.1723389864	0
3	34533	0.17239866	0
3	34562	0.172459857394	0
3	34570	0.172476082894	0
3	34588	0.172531661174	0
3	34621	0.172592858568	0
3	34672	0.172656054619	0
3	34709	0.172721421513	0
3	34728	0.172761040118	0
3	34747	0.172773096118	0
3	34762	0.172785152118	0
3	34788	0.172809254032	0
3	34811	0.172864481693	0
3	34822	0.172905082156	0
3	34837	0.17296627955	0
3	34845	0.172980725997	0
3	34857	0.172992781997	0
3	34864	0.173004837997	0
3	34875	0.173016893997	0
3	34879	0.173028949997	0
3	34883	0.173041005997	0
3	34891	0.173053061997	0
3	34895	0.173065117997	0
3	34906	0.173077173997	0
3	34910	0.173089229997	0
3	34921	0.173101285997	0
3	34929	0.173113341997	0
3	34933	0.173125397997	0
3	34937	0.173137453997	0
3	34940	0.173137597341	1
3	34942	0.173149509997	0
3	34944	0.173149509997	1
3	34952	0.173161565997	0
3	34960	0.173181458771	0
3	34975	0.173242656165	0
3	34986	0.173257102612	0
3	34990	0.173269158612	0
3	34998	0.173281214612	0
3	35006	0.173293270612	0
3	35021	0.173305326612	0
3	35036	0.173366524006	0
3	35044	0.173407707986	0
3	35059	0.173428181559	0
3	35063	0.173455549498	0
3	35085	0.173493796678	0
3	35093	0.173505852678	0
3	35124	0.173565487891	0
3	35128	0.173567384396	1
3	35132	0.173577543891	0
3	35136	0.173579440396	1
3	35140	0.173589599891	0
3	35144	0.173591496396	1
3	35152	0.173601655891	0
3	35156	0.173603552396	1
3	35163	0.173613711891	0
3	35167	0.173615608396	1
3	35171	0.173625767891	0
3	35175	0.173627664396	1
3	35179	0.173637823891	0
3	35183	0.173639720396	1
3	35187	0.173649879891	0
3	35198	0.173651776396	1
3	35202	0.173661935891	0
3	35206	0.173663832396	1
3	35217	0.173673991891	0
3	35221	0.173675888396	1
3	35222	0.173686047891	0
3	35225	0.173688754452	1
3	35237	0.173698103891	0
3	35255	0.173748389665	0
3	35258	0.17375028617	1
3	35263	0.173760445665	0
3	35266	0.17376234217	1
3	35271	0.173772501665	0
3	35274	0.173777405591	1
3	35286	0.173784557665	0
3	35289	0.173789461591	1
3	35294	0.173796613665	0
3	35312	0.173807970808	1
3	35313	0.173808669665	0
3	35331	0.173844288287	0
3	35350	0.1739039235	0
3	35365	0.173932939426	0
3	35391	0.173992574639	0
3	35395	0.174004710569	0
3	35402	0.174012944744	1
3	35403	0.174016766569	0
3	35418	0.174072579957	0
3	35430	0.174093833261	0
3	35461	0.174153468474	0
3	35484	0.174189557672	0
3	35503	0.174249192885	0
3	35533	0.174296184781	0
3	35566	0.174355819994	0
3	35582	0.174415401137	0
3	35601	0.17447503635	0
3	35652	0.174536568068	0
3	35695	0.174600155909	0
3	35745	0.174665887365	0
3	35776	0.174733954896	0
3	35820	0.174804669697	0
3	35854	0.174871823797	0
3	35857	0.174878184656	1
3	35865	0.174883879797	0
3	36331	0.175738937025	0
3	36800	0.176606050253	0
3	37134	0.177198580144	0
3	37142	0.177210636144	0
3	37165	0.1772672568	0
3	37168	0.177268515697	1
3	37177	0.1772793128	0
3	37179	0.1772793128	1
3	37191	0.1772913688	0
3	37202	0.1773034248	0
3	37228	0.1773539048	0
3	37247	0.177413254795	0
3	37276	0.177472928395	0
3	37284	0.177491001294	0
3	37302	0.177546579574	0
3	37331	0.177605929569	0
3	37381	0.177667126963	0
3	37425	0.177730323014	0
3	37451	0.177775958518	0
3	37466	0.177788014518	0
3	37485	0.177800070518	0
3	37515	0.177824172432	0
3	37530	0.177879400093	0
3	37538	0.17789967838	0
3	37553	0.177920000556	0
3	37568	0.177979350551	0
3	37576	0.177995644397	0
3	37595	0.178007700397	0
3	37599	0.178019756397	0
3	37610	0.178031812397	0
3	37614	0.178043868397	0
3	37618	0.178055924397	0
3	37626	0.178067980397	0
3	37630	0.178080036397	0
3	37641	0.178092092397	0
3	37645	0.178104148397	0
3	37656	0.178116204397	0
3	37664	0.178128260397	0
3	37668	0.178140316397	0
3	37672	0.178152372397	0
3	37687	0.178176484397	0
3	37695	0.178196377171	0
3	37710	0.178255727166	0
3	37721	0.178272021012	0
3	37725	0.178284077012	0
3	37733	0.178296133012	0
3	37741	0.178308189012	0
3	37756	0.178320245012	0
3	37771	0.178379595007	0
3	37783	0.178422626386	0
3	37798	0.178443099959	0
3	37802	0.178470467898	0
3	37827	0.178508715078	0
3	37835	0.178520771078	0
3	37842	0.17853209996	1
3	37843	0.178532827078	0
3	37870	0.178580121073	0
3	37878	0.178592462291	0
3	37886	0.178604518291	0
3	37901	0.178616574291	0
3	37909	0.178628630291	0
3	37917	0.178640686291	0
3	37925	0.178652742291	0
3	37937	0.178664798291	0
3	37946	0.178676854291	0
3	37956	0.178688910291	0
3	37961	0.178700966291	0
3	37976	0.178713022291	0
3	37994	0.178763308065	0
3	38002	0.178775364065	0
3	38010	0.178787420065	0
3	38025	0.178799476065	0
3	38044	0.178811532065	0
3	38062	0.178823588065	0
3	38070	0.178859206687	0
3	38092	0.17891708624	0
3	38095	0.1789188419	1
3	38103	0.17892914224	0
3	38111	0.178947857826	0
3	38141	0.179005737379	0
3	38144	0.179007493039	1
3	38145	0.179017793379	0
3	38157	0.179031684969	0
3	38176	0.179087498357	0
3	38188	0.179108751661	0
3	38215	0.17916452154	0
3	38222	0.179166631214	1
3	38223	0.17917657754	0
3	38246	0.179204476072	0
3	38265	0.179262355625	0
3	38295	0.179311103181	0
3	38325	0.179368982734	0
3	38347	0.179428617947	0
3	38370	0.17948819909	0
3	38425	0.179547834303	0
3	38468	0.179609366021	0
3	38511	0.179672953862	0
3	38549	0.179738685318	0
3	38586	0.179806752849	0
3	38623	0.17987746765	0
3	38664	0.17995667775	0
3	39957	0.182225554544	0
3	39980	0.182283236917	0
3	39990	0.1822913688	1
3	39991	0.182295292917	0
3	40001	0.1823062872	1
3	40002	0.182307348917	0
3	40012	0.1823183432	1
3	40013	0.182319404917	0
3	40039	0.1823688232	0
3	40062	0.182426505573	0
3	40095	0.182485855568	0
3	40103	0.182505919694	0
3	40121	0.182561497974	0
3	40150	0.182619180347	0
3	40200	0.182678530342	0
3	40241	0.182739727736	0
3	40266	0.182789080445	0
3	40270	0.182790876918	1
3	40281	0.182801136445	0
3	40285	0.182802932918	1
3	40296	0.182813192445	0
3	40300	0.182814988918	1
3	40315	0.182825248445	0
3	40331	0.182839090832	0
3	40350	0.182894318493	0
3	40369	0.182934918956	0
3	40395	0.182992601329	0
3	40403	0.183010562797	0
3	40422	0.183022618797	0
3	40433	0.183034674797	0
3	40444	0.183046730797	0
3	40448	0.183058786797	0
3	40452	0.183070842797	0
3	40460	0.183082898797	0
3	40464	0.183094954797	0
3	40475	0.183107010797	0
3	40479	0.183119066797	0
3	40490	0.183131122797	0
3	40498	0.183143178797	0
3	40502	0.183155234797	0
3	40506	0.183167290797	0
3	40523	0.183191402797	0
3	40529	0.183211295571	0
3	40548	0.183268977944	0
3	40559	0.183286939412	0
3	40563	0.183298995412	0
3	40571	0.183311051412	0
3	40579	0.183323107412	0
3	40594	0.183335163412	0
3	40613	0.183392845785	0
3	40625	0.183437544786	0
3	40640	0.183458018359	0
3	40644	0.183485386298	0
3	40665	0.183523633478	0
3	40673	0.183535689478	0
3	40705	0.183593371851	0
3	40716	0.183607380691	0
3	40728	0.183619436691	0
3	40739	0.183631492691	0
3	40747	0.183643548691	0
3	40755	0.183655604691	0
3	40759	0.183662140042	1
3	40764	0.183667660691	0
3	40766	0.183667660691	1
3	40775	0.183679716691	0
3	40777	0.183679716691	1
3	40784	0.183691772691	0
3	40786	0.183691772691	1
3	40791	0.183703828691	0
3	40793	0.183703828691	1
3	40796	0.183715884691	0
3	40798	0.183715884691	1
3	40804	0.183727940691	0
3	40806	0.183727940691	1
3	40814	0.183739996691	0
3	40825	0.183778226465	0
3	40833	0.183790282465	0
3	40848	0.183802338465	0
3	40860	0.183814394465	0
3	40878	0.183826450465	0
3	40893	0.183838506465	0
3	40901	0.183874125087	0
3	40923	0.183930417781	0
3	40926	0.18393200464	1
3	40934	0.183942473781	0
3	40937	0.18394406064	1
3	40946	0.183954529781	0
3	40949	0.183962776226	1
3	40950	0.183966585781	0
3	40972	0.18401906892	0
3	40982	0.184020655779	1
3	40987	0.18403112492	0
3	40990	0.184032711779	1
3	40995	0.18404318092	0
3	41002	0.184046603369	1
3	41007	0.18405523692	0
3	41022	0.184102416757	0
3	41034	0.184123670061	0
3	41068	0.184179962755	0
3	41072	0.18419149594	1
3	41083	0.184192018755	0
3	41096	0.184219394472	0
3	41119	0.184275687166	0
3	41142	0.184326021581	0
3	41182	0.184382314275	0
3	41197	0.184440193828	0
3	41224	0.184499829041	0
3	41268	0.184559410184	0
3	41315	0.184619045397	0
3	41325	0.184630612132	1
3	41326	0.184631101397	0
3	41372	0.184680577115	0
3	41407	0.184744164956	0
3	41433	0.184809896412	0
3	41477	0.184877963943	0
3	41484	0.184886742197	1
3	41485	0.184890019943	0
3	41504	0.184948678744	0
3	41549	0.185027888844	0
3	41835	0.18546946233	0
3	42353	0.186336575558	0
3	42848	0.187203688786	0
3	42881	0.1872821752	0
3	42893	0.187296546592	0
3	42915	0.187322267317	0
3	42930	0.187334323317	0
3	42952	0.1873837416	0
3	42982	0.187439820249	0
3	43008	0.187497502622	0
3	43023	0.187520838094	0
3	43049	0.187576416374	0
3	43067	0.187632495023	0
3	43110	0.187690177396	0
3	43119	0.187693448742	1
3	43125	0.187702233396	0
3	43161	0.187748212787	0
3	43164	0.187748570883	1
3	43173	0.187754646136	2
3	43179	0.187760268787	1
3	43180	0.187772324787	0
3	43213	0.187809410181	0
3	43258	0.187854009232	0
3	43277	0.187909236893	0
3	43280	0.18791459678	1
3	43281	0.187921292893	0
3	43296	0.187949837356	0
3	43329	0.188005916005	0
3	43337	0.188025481197	0
3	43352	0.188037537197	0
3	43367	0.188049593197	0
3	43378	0.188061649197	0
3	43389	0.188073705197	0
3	43393	0.188085761197	0
3	43401	0.188097817197	0
3	43405	0.188109873197	0
3	43416	0.188121929197	0
3	43420	0.188133985197	0
3	43435	0.188146041197	0
3	43439	0.188158097197	0
3	43443	0.188170153197	0
3	43447	0.188182209197	0
3	43472	0.188206321197	0
3	43481	0.188226213971	0
3	43507	0.18828229262	0
3	43522	0.188301857812	0
3	43530	0.188313913812	0
3	43538	0.188325969812	0
3	43542	0.188338025812	0
3	43553	0.188350081812	0
3	43561	0.188380992463	0
3	43572	0.188406160461	0
3	43588	0.188452463186	0
3	43599	0.188472936759	0
3	43603	0.188500304698	0
3	43621	0.188538551878	0
3	43625	0.188547745478	1
3	43630	0.188550607878	0
3	43632	0.188550607878	1
3	43637	0.188562663878	0
3	43661	0.188606686527	0
3	43672	0.188622299091	0
3	43687	0.188634355091	0
3	43695	0.188646411091	0
3	43703	0.188658467091	0
3	43711	0.188670523091	0
3	43734	0.188694635091	0
3	43739	0.188706691091	0
3	43746	0.188718747091	0
3	43751	0.188730803091	0
3	43759	0.188742859091	0
3	43767	0.188754915091	0
3	43774	0.188793144865	0
3	43782	0.188805200865	0
3	43801	0.188817256865	0
3	43812	0.188829312865	0
3	43827	0.188841368865	0
3	43842	0.188853424865	0
3	43854	0.188889043487	0
3	43876	0.188943807532	0
3	43879	0.188945336181	1
3	43891	0.188955863532	0
3	43894	0.188957392181	1
3	43902	0.188967919532	0
3	43905	0.188969448181	1
3	43906	0.188979975532	0
3	43909	0.188981504181	1
3	43914	0.188992031532	0
3	43929	0.189014141161	0
3	43937	0.18903398732	0
3	43951	0.18904604332	0
3	43959	0.18905809932	0
3	43967	0.18907015532	0
3	43993	0.189117335157	0
3	44005	0.189138588461	0
3	44036	0.189193352506	0
3	44039	0.189194881155	1
3	44047	0.189205408506	0
3	44053	0.189206937155	1
3	44062	0.189217464506	0
3	44074	0.189234312872	0
3	44104	0.189289076917	0
3	44127	0.189340939981	0
3	44150	0.189395704026	0
3	44165	0.18945199672	0
3	44196	0.189509876273	0
3	44240	0.189569511486	0
3	44287	0.189629092629	0
3	44306	0.189645835623	0
3	44342	0.189688727842	0
3	44383	0.18975025956	0
3	44402	0.189813847401	0
3	44453	0.189879578857	0
3	44476	0.189947646388	0
3	44525	0.190018361189	0
3	44569	0.190097571289	0
3	45939	0.192337185717	0
3	45950	0.192349241717	0
3	45979	0.19239866	0
3	46001	0.192453298331	0
3	46027	0.19250937698	0
3	46046	0.192535756494	0
3	46068	0.192590394825	0
3	46094	0.192645973105	0
3	46133	0.192702051754	0
3	46148	0.192717151796	0
3	46184	0.192763131187	0
3	46203	0.192776607	0
3	46206	0.192787243187	1
3	46207	0.192788663	0
3	46229	0.192824328581	0
3	46273	0.192868927632	0
3	46292	0.192923565963	0
3	46315	0.192964755756	0
3	46351	0.193019394087	0
3	46363	0.193040399597	0
3	46378	0.193052455597	0
3	46389	0.193064511597	0
3	46400	0.193076567597	0
3	46411	0.193088623597	0
3	46415	0.193100679597	0
3	46427	0.193112735597	0
3	46431	0.193124791597	0
3	46442	0.193136847597	0
3	46450	0.193148903597	0
3	46465	0.193160959597	0
3	46469	0.193173015597	0
3	46473	0.193185071597	0
3	46477	0.193197127597	0
3	46503	0.193221239597	0
3	46521	0.193241132371	0
3	46532	0.193270394528	0
3	46548	0.193295770702	0
3	46563	0.193316776212	0
3	46567	0.193328832212	0
3	46575	0.193340888212	0
3	46579	0.193352944212	0
3	46590	0.193365000212	0
3	46609	0.193419638543	0
3	46628	0.193467381586	0
3	46636	0.193487855159	0
3	46640	0.193515223098	0
3	46658	0.193553470278	0
3	46677	0.193577582278	0
3	46698	0.193621604927	0
3	46712	0.193637217491	0
3	46724	0.193649273491	0
3	46732	0.193661329491	0
3	46740	0.193673385491	0
3	46748	0.193685441491	0
3	46767	0.193709553491	0
3	46775	0.193721609491	0
3	46783	0.193733665491	0
3	46788	0.193745721491	0
3	46800	0.193757777491	0
3	46807	0.193769833491	0
3	46818	0.193808063265	0
3	46827	0.193820119265	0
3	46838	0.193832175265	0
3	46846	0.193844231265	0
3	46861	0.193856287265	0
3	46876	0.193868343265	0
3	46895	0.193903961887	0
3	46914	0.193957351674	0
3	46917	0.193958725932	1
3	46928	0.193969407674	0
3	46931	0.193970781932	1
3	46936	0.193981463674	0
3	46939	0.193982837932	1
3	46940	0.193993519674	0
3	46943	0.193994893932	1
3	46948	0.194005575674	0
3	46951	0.194006949932	1
3	46956	0.194017631674	0
3	46978	0.19404890572	0
3	46989	0.19406096172	0
3	47001	0.19407301772	0
3	47005	0.19408507372	0
3	47030	0.194132253557	0
3	47038	0.194148974774	0
3	47045	0.194153506861	1
3	47053	0.194161030774	0
3	47077	0.194206896648	0
3	47080	0.194208270906	1
3	47088	0.194218952648	0
3	47091	0.194220326906	1
3	47103	0.194231008648	0
3	47106	0.194232382906	1
3	47111	0.194243064648	0
3	47118	0.194249231272	1
3	47119	0.194255120648	0
3	47149	0.194302621059	0
3	47172	0.194355858381	0
3	47195	0.194409248168	0
3	47210	0.194464012213	0
3	47241	0.194520304907	0
3	47289	0.19457818446	0
3	47333	0.194637819673	0
3	47388	0.194697400816	0
3	47436	0.194757036029	0
3	47455	0.194818567747	0
3	47506	0.194882155588	0
3	47510	0.194904938343	0
3	47529	0.194947887044	0
3	47558	0.195015954575	0
3	47595	0.195086669376	0
3	47647	0.195165879476	0
3	47800	0.19539243169	0
3	48157	0.195971874077	0
3	48715	0.196838987305	0
3	48992	0.1972970936	0
3	49036	0.197364160117	0
3	49069	0.1974135784	0
3	49088	0.197466822093	0
3	49110	0.197521460424	0
3	49129	0.197550674894	0
3	49155	0.197603918587	0
3	49177	0.197658556918	0
3	49224	0.197714135198	0
3	49235	0.197732070196	0
3	49271	0.197775187187	0
3	49274	0.197778049587	1
3	49282	0.197787243187	0
3	49290	0.1978035814	0
3	49320	0.197839246981	0
3	49356	0.197883846032	0
3	49375	0.197936211293	0
3	49378	0.197937089725	1
3	49379	0.197948267293	0
3	49401	0.197979674156	0
3	49445	0.198032917849	0
3	49453	0.198055317997	0
3	49468	0.198067373997	0
3	49479	0.198079429997	0
3	49490	0.198091485997	0
3	49505	0.198103541997	0
3	49509	0.198115597997	0
3	49517	0.198127653997	0
3	49521	0.198139709997	0
3	49532	0.198151765997	0
3	49543	0.198163821997	0
3	49557	0.198175877997	0
3	49566	0.198187933997	0
3	49570	0.198199989997	0
3	49574	0.198212045997	0
3	49600	0.198236157997	0
3	49615	0.198256050771	0
3	49649	0.198309294464	0
3	49664	0.198331694612	0
3	49667	0.198339540794	1
3	49669	0.198343750612	0
3	49671	0.198343750612	1
3	49677	0.198355806612	0
3	49679	0.198355806612	1
3	49681	0.198367862612	0
3	49683	0.198367862612	1
3	49696	0.198379918612	0
3	49698	0.198379918612	1
3	49699	0.198391974612	0
3	49705	0.198395910863	1
3	49707	0.198404030612	0
3	49718	0.198433162305	0
3	49737	0.198482299986	0
3	49745	0.198502773559	0
3	49752	0.198530141498	0
3	49764	0.198565526278	0
3	49770	0.198568388678	1
3	49772	0.198577582278	0
3	49790	0.198592500678	0
3	49807	0.198636523327	0
3	49825	0.198652135891	0
3	49833	0.198664191891	0
3	49841	0.198676247891	0
3	49849	0.198688303891	0
3	49857	0.198700359891	0
3	49876	0.198724471891	0
3	49888	0.198736527891	0
3	49895	0.198748583891	0
3	49900	0.198760639891	0
3	49915	0.198772695891	0
3	49923	0.198784751891	0
3	49934	0.198822981665	0
3	49942	0.198835037665	0
3	49950	0.198847093665	0
3	49958	0.198859149665	0
3	49966	0.198871205665	0
3	49981	0.198883261665	0
3	50004	0.198918880287	0
3	50026	0.198968855779	0
3	50029	0.198970937661	1
3	50032	0.198972270074	2
3	50040	0.198980911779	1
3	50043	0.198984326074	2
3	50044	0.198992967779	1
3	50051	0.198996382074	2
3	50052	0.199005023779	1
3	50055	0.199008438074	2
3	50064	0.199017079779	1
3	50067	0.199020494074	2
3	50070	0.199029059561	3
3	50071	0.199029135779	2
3	50077	0.199032550074	3
3	50085	0.199041191779	2
3	50090	0.199053247779	1
3	50093	0.19906382412	2
3	50101	0.199065303779	1
3	50104	0.19907588012	2
3	50105	0.199077359779	1
3	50116	0.19908793612	2
3	50117	0.199089415779	1
3	50124	0.19909999212	2
3	50128	0.199101471779	1
3	50133	0.199113527779	0
3	50144	0.199147171957	0
3	50171	0.199175949174	0
3	50194	0.199221815048	0
3	50209	0.199233871048	0
3	50224	0.199245927048	0
3	50232	0.199257983048	0
3	50240	0.199270039048	0
3	50270	0.199317539459	0
3	50293	0.199369596833	0
3	50296	0.199370802433	1
3	50301	0.199381652833	0
3	50320	0.199422834155	0
3	50327	0.199432389062	1
3	50328	0.199434890155	0
3	50339	0.199476223942	0
3	50370	0.199530987987	0
3	50411	0.199587280681	0
3	50473	0.199645160234	0
3	50488	0.199660754023	0
3	50528	0.199704795447	0
3	50565	0.19976437659	0
3	50591	0.199824011803	0
3	50628	0.199885543521	0
3	50673	0.199949131362	0
3	50697	0.200014862818	0
3	50733	0.200064083524	0
3	50738	0.200082930349	0
3	50771	0.20015364515	0
3	50830	0.20023285525	0
3	50981	0.200467413025	0
3	52270	0.2024284968	0
3	52289	0.202480412221	0
3	52315	0.202533655914	0
3	52330	0.202565593294	0
3	52356	0.202617508715	0
3	52385	0.202670752408	0
3	52421	0.202725390739	0
3	52436	0.202746988596	0
3	52482	0.202798904017	0
3	52491	0.2028184998	0
3	52520	0.202854165381	0
3	52552	0.202898764432	0
3	52575	0.202950679853	0
3	52591	0.202994592556	0
3	52637	0.203046507977	0
3	52649	0.203070236397	0
3	52664	0.203082292397	0
3	52679	0.203094348397	0
3	52694	0.203106404397	0
3	52705	0.203118460397	0
3	52719	0.203130516397	0
3	52724	0.203142572397	0
3	52728	0.203154628397	0
3	52742	0.203166684397	0
3	52750	0.203178740397	0
3	52764	0.203190796397	0
3	52768	0.203194854901	1
3	52770	0.203202852397	0
3	52772	0.203202852397	1
3	52774	0.203214908397	0
3	52776	0.203214908397	1
3	52778	0.203226964397	0
3	52780	0.203226964397	1
3	52799	0.203239020397	0
3	52814	0.203251076397	0
3	52829	0.203270969171	0
3	52855	0.203322884592	0
3	52870	0.203346613012	0
3	52882	0.203370725012	0
3	52889	0.203382781012	0
3	52901	0.203394837012	0
3	52912	0.203406893012	0
3	52931	0.203448080705	0
3	52954	0.203497218386	0
3	52962	0.203517691959	0
3	52976	0.203545059898	0
3	52997	0.203592500678	0
3	53019	0.203607419078	0
3	53036	0.203651441727	0
3	53058	0.203667054291	0
3	53066	0.203679110291	0
3	53070	0.203688642429	1
3	53075	0.203691166291	0
3	53077	0.203691166291	1
3	53083	0.203703222291	0
3	53085	0.203703222291	1
3	53095	0.203715278291	0
3	53097	0.203715278291	1
3	53109	0.203727334291	0
3	53120	0.203739390291	0
3	53128	0.203751446291	0
3	53136	0.203763502291	0
3	53145	0.203775558291	0
3	53160	0.203787614291	0
3	53164	0.203799670291	0
3	53182	0.203837900065	0
3	53187	0.203849956065	0
3	53199	0.203862012065	0
3	53203	0.203874068065	0
3	53211	0.203886124065	0
3	53223	0.203898180065	0
3	53246	0.203933798687	0
3	53276	0.203984585627	0
3	53286	0.203995830179	1
3	53287	0.203996641627	0
3	53290	0.204007886179	1
3	53291	0.204008697627	0
3	53302	0.204019942179	1
3	53303	0.204020753627	0
3	53317	0.204031998179	1
3	53318	0.204032809627	0
3	53321	0.204044054179	1
3	53322	0.204044865627	0
3	53332	0.204056110179	1
3	53333	0.204056921627	0
3	53359	0.204080222179	0
3	53364	0.204092278179	0
3	53375	0.204104334179	0
3	53383	0.204116390179	0
3	53391	0.204128446179	0
3	53410	0.204162090357	0
3	53436	0.204190867574	0
3	53460	0.204236733448	0
3	53482	0.204248789448	0
3	53497	0.204260845448	0
3	53505	0.204272901448	0
3	53513	0.204284957448	0
3	53547	0.204332457859	0
3	53574	0.204383244799	0
3	53577	0.204384515233	1
3	53582	0.204395300799	0
3	53585	0.204396571233	1
3	53594	0.204407356799	0
3	53609	0.204437752555	0
3	53632	0.204473693253	0
3	53640	0.204491142342	0
3	53671	0.204541929282	0
3	53677	0.204545906387	1
3	53683	0.204553985282	0
3	53702	0.204567222675	0
3	53728	0.204596693327	0
3	53734	0.204602199081	1
3	53750	0.204608749327	0
3	53790	0.204652986021	0
3	53801	0.204660078634	1
3	53802	0.204665042021	0
3	53850	0.204710865574	0
3	53853	0.204719713847	1
3	53854	0.204722921574	0
3	53898	0.204770500787	0
3	53905	0.20477929499	1
3	53906	0.204782556787	0
3	53929	0.20483008193	0
3	53939	0.204838930203	1
3	53940	0.20484213793	0
3	53966	0.204889717143	0
3	53980	0.204900461921	1
3	53981	0.204901773143	0
3	54023	0.204951248861	0
3	54038	0.204964049762	0
3	54066	0.205014836702	0
3	54074	0.205029781218	0
3	54123	0.205080568158	0
3	54127	0.205097848749	0
3	54157	0.205148635689	0
3	54172	0.20516856355	0
3	54209	0.20521935049	0
3	54239	0.20524777365	0
3	54283	0.20529856059	0
3	54309	0.205339971062	0
3	54316	0.20534934753	1
3	54324	0.205352027062	0
3	54364	0.20540013447	0
3	54398	0.20545092141	0
3	54433	0.20550170835	0
3	54484	0.20555249529	0
3	54533	0.20560328223	0
3	54589	0.20565406917	0
3	54646	0.20570485611	0
3	54677	0.20575564305	0
3	54725	0.20580642999	0
3	54737	0.205824474377	0
3	54760	0.20585721693	0
3	54792	0.20590800387	0
3	54833	0.20595879081	0
3	54878	0.20600957775	0
3	54909	0.20606036469	0
3	55208	0.206403916764	0
3	55826	0.207271029992	0
3	56135	0.207729136287	0
3	56301	0.207951129693	0
3	56507	0.208265994797	0
3	56522	0.208285887571	0
3	56548	0.208336598201	0
3	56559	0.208358669012	0
3	56562	0.208361531412	1
3	56570	0.208370725012	0
3	56575	0.208385643412	0
3	56589	0.208397699412	0
3	56600	0.208409755412	0
3	56608	0.208418949012	1
3	56620	0.208421811412	0
3	56622	0.208421811412	1
3	56624	0.208433867412	0
3	56635	0.208462999105	0
3	56665	0.208512136786	0
3	56677	0.208532610359	0
3	56692	0.208559978298	0
3	56711	0.208580444678	0
3	56726	0.208607419078	0
3	56741	0.208622337478	0
3	56752	0.208666360127	0
3	56774	0.208681972691	0
3	56778	0.208694028691	0
3	56790	0.208718140691	0
3	56805	0.208730196691	0
3	56816	0.208742252691	0
3	56820	0.208754308691	0
3	56824	0.208766364691	0
3	56835	0.208778420691	0
3	56847	0.208790476691	0
3	56862	0.208802532691	0
3	56866	0.208814588691	0
3	56885	0.208852818465	0
3	56896	0.208864874465	0
3	56908	0.208876930465	0
3	56916	0.208888986465	0
3	56924	0.208901042465	0
3	56939	0.208913098465	0
3	56961	0.208934379384	0
3	56970	0.208948717087	0
3	56996	0.208983774179	0
3	57000	0.208998350487	0
3	57003	0.208999556087	1
3	57004	0.209010406487	0
3	57007	0.209011560027	1
3	57008	0.209022462487	0
3	57015	0.209023616027	1
3	57027	0.209034518487	0
3	57030	0.209035672027	1
3	57042	0.209046574487	0
3	57045	0.209047728027	1
3	57046	0.209058630487	0
3	57049	0.209059784027	1
3	57052	0.209068166179	2
3	57053	0.209070686487	1
3	57056	0.209071840027	2
3	57065	0.209082742487	1
3	57080	0.209094798487	0
3	57083	0.209095140579	1
3	57085	0.209106854487	0
3	57088	0.209107196579	1
3	57096	0.209118910487	0
3	57099	0.209119252579	1
3	57104	0.209130966487	0
3	57107	0.209131308579	1
3	57112	0.209143022487	0
3	57115	0.209143364579	1
3	57116	0.209155078487	0
3	57138	0.209177008757	0
3	57161	0.209205785974	0
3	57184	0.209251651848	0
3	57199	0.209263707848	0
3	57207	0.209275763848	0
3	57215	0.209287819848	0
3	57223	0.209299875848	0
3	57246	0.209347376259	0
3	57269	0.209397009659	0
3	57272	0.209398215259	1
3	57277	0.209409065659	0
3	57280	0.209410219199	1
3	57288	0.209421121659	0
3	57291	0.209422100885	1
3	57294	0.209422275199	2
3	57299	0.209433177659	1
3	57300	0.209445233659	0
3	57307	0.209449808555	1
3	57310	0.209452670955	2
3	57311	0.209457289659	1
3	57319	0.209469345659	0
3	57323	0.209488611653	0
3	57331	0.209506060742	0
3	57358	0.209555694142	0
3	57361	0.209556899742	1
3	57373	0.209567750142	0
3	57376	0.209568903682	1
3	57381	0.209579806142	0
3	57401	0.209611611727	0
3	57416	0.209623667727	0
3	57442	0.209667904421	0
3	57446	0.209675672423	1
3	57448	0.209679960421	0
3	57450	0.209679960421	1
3	57455	0.209692016421	0
3	57470	0.209725783974	0
3	57474	0.209737839974	0
3	57500	0.209785419187	0
3	57508	0.209797475187	0
3	57534	0.20984500033	0
3	57545	0.20985705633	0
3	57574	0.209904635543	0
3	57589	0.209916691543	0
3	57630	0.209966167261	0
3	57652	0.209978968162	0
3	57687	0.210028601562	0
3	57690	0.210029607129	1
3	57698	0.210040657562	0
3	57701	0.210044699618	1
3	57709	0.210052713562	0
3	57731	0.210079001924	0
3	57747	0.210093300286	0
3	57750	0.210095486558	1
3	57751	0.210105356286	0
3	57754	0.210112767149	1
3	57755	0.210117412286	0
3	57785	0.210161367817	0
3	57788	0.210163554089	1
3	57789	0.210173423817	0
3	57803	0.21018348195	1
3	57804	0.210185479817	0
3	57837	0.210232082618	0
3	57863	0.21026269205	0
3	57903	0.210311292718	0
3	57929	0.210362079658	0
3	57987	0.21043293663	0
3	58020	0.21051547321	0
3	58064	0.21056626015	0
3	58097	0.21061704709	0
3	58137	0.21066783403	0
3	58174	0.21071862097	0
3	58196	0.21076940791	0
3	58240	0.21082019485	0
3	58248	0.210836266131	0
3	58271	0.21087098179	0
3	58298	0.21092176873	0
3	58339	0.21097255567	0
3	58368	0.21102334261	0
3	58395	0.21107412955	0
3	58435	0.21112491649	0
3	59925	0.213300805971	0
3	59951	0.213350329566	0
3	59974	0.213385643412	0
3	59978	0.213400561812	0
3	59993	0.213412617812	0
3	60004	0.213424673812	0
3	60023	0.213448785812	0
3	60042	0.213477917505	0
3	60071	0.213527055186	0
3	60083	0.213547528759	0
3	60098	0.213571705503	0
3	60101	0.213574896698	1
3	60113	0.213583761503	0
3	60142	0.213622337478	0
3	60157	0.213637255878	0
3	60172	0.213681278527	0
3	60187	0.213696891091	0
3	60198	0.213708947091	0
3	60206	0.213733059091	0
3	60217	0.213745115091	0
3	60228	0.213757171091	0
3	60232	0.213769227091	0
3	60236	0.213781283091	0
3	60244	0.213793339091	0
3	60255	0.213805395091	0
3	60270	0.213817451091	0
3	60274	0.213829507091	0
3	60293	0.213867736865	0
3	60308	0.213879792865	0
3	60316	0.213891848865	0
3	60324	0.213903904865	0
3	60332	0.213915960865	0
3	60347	0.213928016865	0
3	60382	0.213963635487	0
3	60416	0.214012131111	0
3	60419	0.214013336711	1
3	60420	0.214024187111	0
3	60423	0.214025324887	1
3	60424	0.214036243111	0
3	60431	0.214037380887	1
3	60447	0.214048299111	0
3	60450	0.214049436887	1
3	60456	0.214060019397	2
3	60457	0.214060355111	1
3	60461	0.214061492887	2
3	60469	0.214072411111	1
3	60472	0.214073548887	2
3	60476	0.214084467111	1
3	60480	0.214085604887	2
3	60496	0.214096523111	1
3	60505	0.214108579111	0
3	60508	0.214109716887	1
3	60516	0.214120635111	0
3	60519	0.214121772887	1
3	60527	0.214132691111	0
3	60530	0.214133828887	1
3	60539	0.214144747111	0
3	60542	0.214145884887	1
3	60547	0.214156803111	0
3	60550	0.214157940887	1
3	60554	0.214168859111	0
3	60557	0.214169996887	1
3	60565	0.214180915111	0
3	60575	0.214191927157	1
3	60576	0.214192971111	0
3	60595	0.214220704374	0
3	60618	0.214266570248	0
3	60633	0.214278626248	0
3	60641	0.214290682248	0
3	60649	0.214302738248	0
3	60657	0.214314794248	0
3	60684	0.214362294659	0
3	60711	0.214410790283	0
3	60714	0.214411995883	1
3	60719	0.214422846283	0
3	60722	0.214423984059	1
3	60731	0.214434902283	0
3	60734	0.214436040059	1
3	60743	0.214446958283	0
3	60751	0.214460152059	0
3	60767	0.214484264059	0
3	60775	0.214503530053	0
3	60779	0.214520979142	0
3	60810	0.214569474766	0
3	60813	0.214570680366	1
3	60821	0.214581530766	0
3	60824	0.214582668542	1
3	60829	0.214593586766	0
3	60832	0.214594724542	1
3	60841	0.214605642766	0
3	60853	0.214626530127	0
3	60864	0.214638586127	0
3	60887	0.214682822821	0
3	60903	0.214706934821	0
3	60914	0.214740702374	0
3	60918	0.214752758374	0
3	60933	0.214800337587	0
3	60941	0.214812393587	0
3	60963	0.21485991873	0
3	60974	0.21487197473	0
3	60999	0.214919553943	0
3	61014	0.214931609943	0
3	61027	0.214936075781	1
3	61036	0.214943665943	0
3	61067	0.214980105567	0
3	61070	0.214981311167	1
3	61085	0.214992161567	0
3	61088	0.214993886562	1
3	61093	0.215004217567	0
3	61122	0.215042382186	0
3	61125	0.215043587786	1
3	61130	0.215054438186	0
3	61141	0.215067631962	0
3	61175	0.215108218686	0
3	61183	0.215120274686	0
3	61187	0.215132330686	0
3	61220	0.215176286217	0
3	61228	0.215188342217	0
3	61247	0.215200398217	0
3	61276	0.215247001018	0
3	61302	0.21527761045	0
3	61342	0.215326106074	0
3	61345	0.215327311674	1
3	61353	0.215338162074	0
3	61368	0.215374706742	0
3	61371	0.215376998058	1
3	61383	0.215386762742	0
3	61412	0.215425493682	0
3	61446	0.215473989306	0
3	61472	0.21552248493	0
3	61632	0.215722085605	0
3	61740	0.215934395814	0
3	61788	0.215985182754	0
3	61826	0.216035969694	0
3	61849	0.216086756634	0
3	61885	0.216137543574	0
3	61914	0.216188330514	0
3	61929	0.216204516234	0
3	62376	0.216783958621	0
3	62941	0.217651071849	0
3	63188	0.217966048093	0
3	63429	0.21833117155	0
3	63441	0.218364133234	0
3	63464	0.218400561812	0
3	63468	0.218415480212	0
3	63479	0.218427536212	0
3	63488	0.21843706313	1
3	63495	0.218439592212	0
3	63497	0.218439592212	1
3	63509	0.218451648212	0
3	63520	0.218463704212	0
3	63546	0.218492835905	0
3	63583	0.218541246657	0
3	63591	0.218562447159	0
3	63616	0.218595363078	0
3	63620	0.218598679903	1
3	63634	0.218607419078	0
3	63646	0.218637255878	0
3	63661	0.218652174278	0
3	63672	0.218696196927	0
3	63687	0.218711809491	0
3	63698	0.218723865491	0
3	63702	0.218747977491	0
3	63713	0.218760033491	0
3	63724	0.218772089491	0
3	63728	0.218784145491	0
3	63732	0.218796201491	0
3	63736	0.218808257491	0
3	63751	0.218820313491	0
3	63762	0.218832369491	0
3	63769	0.218844425491	0
3	63789	0.218882655265	0
3	63800	0.218894711265	0
3	63804	0.218906767265	0
3	63807	0.21891113784	1
3	63817	0.218918823265	0
3	63819	0.218918823265	1
3	63825	0.218930879265	0
3	63827	0.218930879265	1
3	63844	0.218942935265	0
3	63846	0.218942935265	1
3	63860	0.218949297784	2
3	63865	0.218954991265	1
3	63870	0.218967047265	0
3	63884	0.218978553887	1
3	63885	0.218979103265	0
3	63900	0.218998692579	0
3	63926	0.219025981977	0
3	63929	0.219027187577	1
3	63930	0.219038037977	0
3	63933	0.219039105511	1
3	63938	0.219050093977	0
3	63941	0.219051161511	1
3	63957	0.219062149977	0
3	63960	0.219063217511	1
3	63968	0.219074205977	0
3	63974	0.219075273511	1
3	63991	0.219086261977	0
3	63994	0.219097660887	1
3	63995	0.219098317977	0
3	63998	0.219099385511	1
3	64007	0.219110373977	0
3	64010	0.219111441511	1
3	64025	0.219122429977	0
3	64029	0.219123497511	1
3	64036	0.219134485977	0
3	64040	0.219135553511	1
3	64047	0.219146541977	0
3	64051	0.219147609511	1
3	64060	0.219158597977	0
3	64063	0.219159665511	1
3	64068	0.219170653977	0
3	64071	0.219171721511	1
3	64072	0.219182709977	0
3	64075	0.219183777511	1
3	64083	0.219194765977	0
3	64086	0.219195833511	1
3	64098	0.219206821977	0
3	64101	0.219207889511	1
3	64113	0.219218877977	0
3	64121	0.219235622774	0
3	64144	0.219281488648	0
3	64159	0.219293544648	0
3	64167	0.219305600648	0
3	64175	0.219317656648	0
3	64183	0.219329712648	0
3	64217	0.219377140738	0
3	64220	0.219378346338	1
3	64227	0.219389196738	0
3	64247	0.219413435649	0
3	64254	0.219424641149	1
3	64255	0.219425491649	0
3	64263	0.219437764683	0
3	64277	0.219448096059	1
3	64279	0.219449820683	0
3	64281	0.219449820683	1
3	64287	0.219461876683	0
3	64289	0.219461876683	1
3	64296	0.219472208059	2
3	64297	0.219473932683	1
3	64300	0.219475070459	2
3	64305	0.219485988683	1
3	64321	0.219498044683	0
3	64324	0.219499182459	1
3	64325	0.219510100683	0
3	64332	0.219518448453	1
3	64333	0.219522156683	0
3	64340	0.219535897542	0
3	64375	0.219583325632	0
3	64381	0.219584531232	1
3	64391	0.219595381632	0
3	64394	0.219596449166	1
3	64399	0.219607437632	0
3	64402	0.219608505166	1
3	64407	0.219619493632	0
3	64410	0.219620561166	1
3	64418	0.219631549632	0
3	64426	0.219641448527	1
3	64427	0.219643605632	0
3	64434	0.219653504527	1
3	64435	0.219655661632	0
3	64458	0.219694878821	0
3	64462	0.219697741221	1
3	64466	0.219706934821	0
3	64475	0.219721853221	0
3	64491	0.219755620774	0
3	64495	0.219767676774	0
3	64511	0.219815104864	0
3	64514	0.219816310464	1
3	64523	0.219827160864	0
3	64526	0.219827311987	1
3	64531	0.219839216864	0
3	64543	0.219874740077	0
3	64546	0.219875945677	1
3	64554	0.219886796077	0
3	64557	0.21988689313	1
3	64562	0.219898852077	0
3	64592	0.21993432122	0
3	64595	0.21993552682	1
3	64607	0.21994637722	0
3	64610	0.219946528343	1
3	64626	0.21995843322	0
3	64656	0.219993956433	0
3	64659	0.219995162033	1
3	64680	0.220006012433	0
3	64690	0.220007079967	1
3	64696	0.220010653583	2
3	64698	0.220018068433	1
3	64701	0.220019135967	2
3	64706	0.220030124433	1
3	64711	0.220042180433	0
3	64729	0.220053361313	1
3	64730	0.220054236433	0
3	64740	0.220055575962	1
3	64743	0.220057300586	2
3	64744	0.220066292433	1
3	64747	0.220069356586	2
3	64755	0.220078348433	1
3	64758	0.220082550362	2
3	64759	0.220090404433	1
3	64762	0.220093920324	2
3	64778	0.220102460433	1
3	64783	0.220114516433	0
3	64786	0.220116775708	1
3	64800	0.220123137086	2
3	64801	0.220126572433	1
3	64808	0.220135193086	2
3	64809	0.220138628433	1
3	64816	0.220147249086	2
3	64828	0.220150684433	1
3	64840	0.220162740433	0
3	64855	0.220191204617	0
3	64870	0.220203260617	0
3	64885	0.220215316617	0
3	64922	0.220261919418	0
3	64948	0.22029252885	0
3	64991	0.22033995694	0
3	64995	0.22034116254	1
3	65010	0.22035201294	0
3	65014	0.220353080474	1
3	65022	0.22036406894	0
3	65030	0.220389625142	0
3	65049	0.220401681142	0
3	65059	0.220409695086	1
3	65064	0.220413737142	0
3	65086	0.220440412082	0
3	65100	0.22044785503	1
3	65101	0.220452468082	0
3	65135	0.220487840172	0
3	65138	0.220489045772	1
3	65146	0.220499896172	0
3	65166	0.220536335796	0
3	65169	0.220537541396	1
3	65181	0.220548391796	0
3	65222	0.22058483142	0
3	65263	0.22063225951	0
3	65311	0.2206796876	0
3	65351	0.22072711569	0
3	65384	0.220763629792	0
3	65390	0.22077454378	1
3	65392	0.220775685792	0
3	65421	0.22082197187	0
3	65447	0.22086939996	0
3	65485	0.22091682805	0
3	65508	0.220949314214	0
3	65549	0.220996742304	0
3	65555	0.221000101154	1
[...]
3	630545	0.607242490211	13
3	630556	0.607245730211	12
3	630568	0.607253523799	13
3	630575	0.607257786211	12
3	630591	0.607266602211	13
3	630592	0.607269842211	12
3	630623	0.607281898211	11
3	630626	0.607283262315	12
3	630637	0.607290714211	13
3	630644	0.607293954211	12
3	630660	0.607306010211	11
3	630664	0.607307374315	12
3	630683	0.607318066211	11
3	630699	0.607326882211	12
3	630700	0.607330122211	11
3	630703	0.607331486315	12
3	630727	0.607342178211	11
3	630738	0.607350419841	12
3	630749	0.607354234211	11
3	630761	0.607363050211	12
3	630770	0.607365912611	13
3	630775	0.607366290211	12
3	630806	0.607378346211	11
3	630813	0.607384788447	12
3	630815	0.607390402211	11
3	630835	0.607402458211	10
3	630838	0.607403431963	11
3	630857	0.607414514211	10
3	630860	0.607414699895	11
3	630864	0.607415487963	12
3	630879	0.607423330211	13
3	630886	0.607426570211	12
3	630890	0.607427543963	13
3	630901	0.607435386211	14
3	630912	0.607438626211	13
3	630923	0.607445226479	14
3	630935	0.607450682211	13
3	630947	0.607459498211	14
3	630952	0.607462738211	13
3	630955	0.607464102315	14
3	630982	0.607474794211	13
3	630989	0.607483610211	14
3	631004	0.607486850211	13
3	631018	0.607498906211	12
3	631021	0.607500270315	13
3	631039	0.607507722211	14
3	631044	0.607510962211	13
3	631059	0.607523018211	12
3	631063	0.607524382315	13
3	631072	0.607535074211	12
3	631090	0.607546752611	13
3	631095	0.607547130211	12
3	631113	0.607555946211	13
3	631122	0.607558808611	14
3	631127	0.607559186211	13
3	631145	0.607571242211	12
3	631161	0.607577684447	13
3	631168	0.607583298211	12
3	631179	0.607592114211	13
3	631190	0.607595354211	12
3	631194	0.607596718315	13
3	631207	0.607607410211	12
3	631223	0.607614010479	13
3	631226	0.607619466211	12
3	631247	0.607631144611	13
3	631252	0.607631522211	12
3	631267	0.607643200611	13
3	631272	0.607643578211	12
3	631275	0.607643763895	13
3	631293	0.607652394211	14
3	631296	0.607655256611	15
3	631301	0.607655634211	14
3	631312	0.607664450211	15
3	631323	0.607667690211	14
3	631334	0.607674132447	15
3	631340	0.607679746211	14
3	631360	0.607691802211	13
3	631363	0.607693166315	14
3	631382	0.607703858211	13
3	631394	0.607712674211	14
3	631397	0.607715536611	15
3	631398	0.607715914211	14
3	631418	0.607727970211	13
3	631435	0.607734412447	14
3	631447	0.607740026211	13
3	631455	0.607751704611	14
3	631460	0.607752082211	13
3	631485	0.607763760611	14
3	631490	0.607764138211	13
3	631493	0.607764323895	14
3	631504	0.607772954211	15
3	631519	0.607776194211	14
3	631540	0.607782636447	15
3	631546	0.607788250211	14
3	631571	0.607799928611	15
3	631572	0.607800306211	14
3	631596	0.607811984611	15
3	631601	0.607812362211	14
3	631615	0.607824040611	15
3	631620	0.607824418211	14
3	631623	0.607824603895	15
3	631652	0.607836096611	16
3	631657	0.607836474211	15
3	631681	0.607848530211	14
3	631693	0.607854972447	15
3	631698	0.607856178047	16
3	631703	0.607860586211	15
3	631733	0.607872642211	14
3	631737	0.607873701228	15
3	631754	0.607879088686	16
3	631756	0.607884698211	15
3	631759	0.607884883895	16
3	631782	0.607891144686	17
3	631789	0.607896754211	16
3	631802	0.607903200686	17
3	631808	0.607908810211	16
3	631828	0.607915256686	17
3	631834	0.607920866211	16
3	631844	0.607927312686	17
3	631856	0.607932922211	16
3	631877	0.607939368686	17
3	631889	0.607944978211	16
3	631907	0.607951424686	17
3	631913	0.607957034211	16
3	631916	0.607957219895	17
3	631928	0.607963480686	18
3	631935	0.607969090211	17
3	631955	0.607975536686	18
3	631963	0.607981146211	17
3	631970	0.607987592686	18
3	631976	0.607993202211	17
3	632002	0.607999648686	18
3	632009	0.608005258211	17
3	632026	0.608011704686	18
3	632032	0.608017314211	17
3	632035	0.608017499895	18
3	632048	0.608023760686	19
3	632050	0.608029370211	18
3	632070	0.608035816686	19
3	632082	0.608041426211	18
3	632089	0.608047872686	19
3	632095	0.608053482211	18
3	632114	0.608059928686	19
3	632119	0.608062298211	20
3	632124	0.608065538211	19
3	632141	0.608071984686	20
3	632153	0.608077594211	19
3	632167	0.608084040686	20
3	632173	0.608089650211	19
3	632201	0.608101328611	20
3	632206	0.608101706211	19
3	632233	0.608113384611	20
3	632238	0.608113762211	19
3	632241	0.608113947895	20
3	632253	0.608125440611	21
3	632258	0.608125818211	20
3	632284	0.608137874211	19
3	632296	0.608144165153	20
3	632309	0.608149930211	19
3	632335	0.608158746211	20
3	632344	0.608161608611	21
3	632349	0.608161986211	20
3	632372	0.608174042211	19
3	632385	0.608180333153	20
3	632392	0.608186098211	19
3	632424	0.608194914211	20
3	632427	0.608197776611	21
3	632432	0.608198154211	20
3	632447	0.608210210211	19
3	632467	0.608216501153	20
3	632470	0.608222266211	19
3	632498	0.608233944611	20
3	632503	0.608234322211	19
3	632523	0.608246000611	20
3	632524	0.608246378211	19
3	632527	0.608246563895	20
3	632549	0.608258056611	21
3	632554	0.608258434211	20
3	632577	0.608270490211	19
3	632594	0.608276781153	20
3	632602	0.608282546211	19
3	632624	0.608294224611	20
3	632629	0.608294602211	19
3	632657	0.608306280611	20
3	632662	0.608306658211	19
3	632665	0.608306843895	20
3	632685	0.608318336611	21
3	632686	0.608318714211	20
3	632703	0.608330770211	19
3	632728	0.608337061153	20
3	632732	0.608342826211	19
3	632759	0.608354504611	20
3	632760	0.608354882211	19
3	632785	0.608366560611	20
3	632790	0.608366938211	19
3	632793	0.608367123895	20
3	632817	0.608378616611	21
3	632818	0.608378994211	20
3	632842	0.608391050211	19
3	632861	0.608397341153	20
3	632864	0.608403106211	19
3	632884	0.608414784611	20
3	632885	0.608415162211	19
3	632914	0.608426840611	20
3	632919	0.608427218211	19
3	632922	0.608427403895	20
3	632958	0.608438896611	21
3	632959	0.608439274211	20
3	632972	0.608450952611	21
3	632977	0.608451330211	20
3	633003	0.608463386211	19
3	633023	0.608469677153	20
3	633032	0.608475442211	19
3	633054	0.608484258211	20
3	633070	0.608487120611	21
3	633071	0.608487498211	20
3	633090	0.608499554211	19
3	633117	0.608505845153	20
3	633130	0.608511610211	19
3	633152	0.608520426211	20
3	633155	0.608523288611	21
3	633156	0.608523666211	20
3	633182	0.608535722211	19
3	633202	0.608542013153	20
3	633210	0.608547778211	19
3	633232	0.608556594211	20
3	633241	0.608559456611	21
3	633242	0.608559834211	20
3	633272	0.608571890211	19
3	633292	0.608578181153	20
3	633301	0.608583946211	19
3	633322	0.608592762211	20
3	633332	0.608595624611	21
3	633333	0.608596002211	20
3	633359	0.608608058211	19
3	633379	0.608614349153	20
3	633386	0.608620114211	19
3	633404	0.608628930211	20
3	633410	0.608631792611	21
3	633411	0.608632170211	20
3	633439	0.608644226211	19
3	633463	0.608650517153	20
3	633476	0.608656282211	19
3	633505	0.608665098211	20
3	633515	0.608667960611	21
3	633516	0.608668338211	20
3	633535	0.608680394211	19
3	633555	0.608686685153	20
3	633568	0.608692450211	19
3	633590	0.608701266211	20
3	633599	0.608704128611	21
3	633600	0.608704506211	20
3	633620	0.608716562211	19
3	633642	0.608722853153	20
3	633649	0.608728618211	19
3	633670	0.608737434211	20
3	633679	0.608740296611	21
3	633680	0.608740674211	20
3	633699	0.608752730211	19
3	633723	0.608759021153	20
3	633736	0.608764786211	19
3	633761	0.608773602211	20
3	633770	0.608776464611	21
3	633771	0.608776842211	20
3	633794	0.608788898211	19
3	633818	0.608795189153	20
3	633821	0.608800954211	19
3	633853	0.608812632611	20
3	633854	0.608813010211	19
3	633888	0.608824688611	20
3	633889	0.608825066211	19
3	633892	0.608825251895	20
3	633924	0.608836744611	21
3	633925	0.608837122211	20
3	633948	0.608849178211	19
3	633962	0.608855469153	20
3	633970	0.608861234211	19
3	633999	0.608870050211	20
3	634009	0.608872912611	21
3	634010	0.608873290211	20
3	634027	0.608885346211	19
3	634049	0.608891637153	20
3	634055	0.608894162211	21
3	634059	0.608897402211	20
3	634081	0.608909458211	19
3	634085	0.608910517228	20
3	634114	0.608921514211	19
3	634135	0.608933192611	20
3	634136	0.608933570211	19
3	634162	0.608942386211	20
3	634171	0.608945248611	21
3	634172	0.608945626211	20
3	634195	0.608957682211	19
3	634215	0.608963973153	20
3	634224	0.608969738211	19
3	634243	0.608978554211	20
3	634246	0.608981416611	21
3	634247	0.608981794211	20
3	634273	0.608993850211	19
3	634296	0.609000141153	20
3	634301	0.609002666211	21
3	634308	0.609005906211	20
3	634324	0.609017962211	19
3	634328	0.609019021228	20
3	634347	0.609030018211	19
3	634369	0.609038834211	20
3	634375	0.609041696611	21
3	634376	0.609042074211	20
3	634394	0.609054130211	19
3	634405	0.609060421153	20
3	634413	0.609066186211	19
3	634435	0.609075002211	20
3	634444	0.609077864611	21
3	634445	0.609078242211	20
3	634455	0.609090298211	19
3	634475	0.609096589153	20
3	634482	0.609102354211	19
3	634500	0.609111170211	20
3	634509	0.609114032611	21
3	634510	0.609114410211	20
3	634529	0.609126466211	19
3	634540	0.609132757153	20
3	634542	0.609138522211	19
3	634574	0.609150200611	20
3	634575	0.609150578211	19
3	634592	0.609162256611	20
3	634593	0.609162634211	19
3	634596	0.609162819895	20
3	634617	0.609174312611	21
3	634618	0.609174690211	20
3	634635	0.609186746211	19
3	634654	0.609193037153	20
3	634661	0.609198802211	19
3	634675	0.609207618211	20
3	634684	0.609210480611	21
3	634685	0.609210858211	20
3	634702	0.609222914211	19
3	634721	0.609229205153	20
3	634728	0.609234970211	19
3	634749	0.609243786211	20
3	634752	0.609246648611	21
3	634753	0.609247026211	20
3	634773	0.609259082211	19
3	634789	0.609265373153	20
3	634798	0.609271138211	19
3	634820	0.609279954211	20
3	634823	0.609282816611	21
3	634828	0.609283194211	20
3	634855	0.609295250211	19
3	634878	0.609301541153	20
3	634891	0.609307306211	19
3	634899	0.609316122211	20
3	634902	0.609318984611	21
3	634903	0.609319362211	20
3	634930	0.609331418211	19
3	634946	0.609337709153	20
3	634953	0.609343474211	19
3	634968	0.609355152611	20
3	634969	0.609355530211	19
3	634986	0.609367208611	20
3	634991	0.609367586211	19
3	634994	0.609367771895	20
3	635019	0.609379264611	21
3	635024	0.609379642211	20
3	635040	0.609391698211	19
3	635052	0.609397989153	20
3	635059	0.609403754211	19
3	635081	0.609415432611	20
3	635086	0.609415810211	19
3	635116	0.609427866211	18
3	635119	0.609428051895	19
3	635135	0.609434157153	20
3	635142	0.609439922211	19
3	635156	0.609451600611	20
3	635161	0.609451978211	19
3	635182	0.609463656611	20
3	635183	0.609464034211	19
3	635205	0.609475712611	20
3	635210	0.609476090211	19
3	635228	0.609487768611	20
3	635229	0.609488146211	19
3	635250	0.609499824611	20
3	635255	0.609500202211	19
3	635280	0.609511880611	20
3	635285	0.609512258211	19
3	635301	0.609524314211	18
3	635327	0.609530605153	19
3	635335	0.609536370211	18
3	635349	0.609548048611	19
3	635350	0.609548426211	18
3	635368	0.609560104611	19
3	635373	0.609560482211	18
3	635401	0.609572160611	19
3	635402	0.609572538211	18
3	635424	0.609584216611	19
3	635429	0.609584594211	18
3	635443	0.609596272611	19
3	635448	0.609596650211	18
3	635466	0.609608328611	19
3	635471	0.609608706211	18
3	635501	0.609620762211	17
3	635513	0.609627053153	18
3	635520	0.609632818211	17
3	635546	0.609644496611	18
3	635551	0.609644874211	17
3	635579	0.609656552611	18
3	635584	0.609656930211	17
3	635602	0.609668608611	18
3	635603	0.609668986211	17
3	635617	0.609680664611	18
3	635622	0.609681042211	17
3	635643	0.609692720611	18
3	635648	0.609693098211	17
3	635673	0.609704776611	18
3	635674	0.609705154211	17
3	635698	0.609717210211	16
3	635718	0.609723501153	17
3	635725	0.609729266211	16
3	635746	0.609740944611	17
3	635747	0.609741322211	16
3	635761	0.609753000611	17
3	635766	0.609753378211	16
3	635784	0.609765056611	17
3	635789	0.609765434211	16
3	635807	0.609777112611	17
3	635808	0.609777490211	16
3	635826	0.609789168611	17
3	635831	0.609789546211	16
3	635862	0.609801602211	15
3	635872	0.609807893153	16
3	635874	0.609813658211	15
3	635895	0.609825336611	16
3	635900	0.609825714211	15
3	635918	0.609837392611	16
3	635923	0.609837770211	15
3	635944	0.609849448611	16
3	635949	0.609849826211	15
3	635963	0.609861504611	16
3	635964	0.609861882211	15
3	635979	0.609873560611	16
3	635987	0.609873938211	15
3	636014	0.609885994211	14
3	636030	0.609892285153	15
3	636033	0.609898050211	14
3	636040	0.609909728611	15
3	636045	0.609910106211	14
3	636063	0.609921784611	15
3	636068	0.609922162211	14
3	636097	0.609933840611	15
3	636102	0.609934218211	14
3	636114	0.609945896611	15
3	636115	0.609946274211	14
3	636129	0.609957952611	15
3	636134	0.609958330211	14
3	636159	0.609970008611	15
3	636164	0.609970386211	14
3	636187	0.609982442211	13
3	636203	0.609988733153	14
3	636206	0.609994498211	13
3	636229	0.610006176611	14
3	636234	0.610006554211	13
3	636248	0.610018232611	14
3	636253	0.610018610211	13
3	636285	0.610030666211	12
3	636308	0.610036957153	13
3	636311	0.610042722211	12
3	636329	0.610054400611	13
3	636334	0.610054778211	12
3	636341	0.610066456611	13
3	636346	0.610066834211	12
3	636367	0.610078512611	13
3	636372	0.610078890211	12
3	636388	0.610090946211	11
3	636411	0.610097237153	12
3	636418	0.610103002211	11
3	636439	0.610114680611	12
3	636444	0.610115058211	11
3	636459	0.610126736611	12
3	636463	0.610127114211	11
3	636494	0.610139170211	10
3	636510	0.610145461153	11
3	636517	0.610151226211	10
3	636538	0.610162904611	11
3	636543	0.610163282211	10
3	636561	0.610174960611	11
3	636562	0.610175338211	10
3	636586	0.610187394211	9
3	636602	0.610193685153	10
3	636609	0.610199450211	9
3	636634	0.610211128611	10
3	636635	0.610211506211	9
3	636659	0.610223562211	8
3	636676	0.610229853153	9
3	636682	0.610235618211	8
3	636702	0.610247674211	7
3	636714	0.610253965153	8
3	636724	0.610259730211	7
3	636742	0.610271408611	8
3	636747	0.610271786211	7
3	636774	0.610283842211	6
3	636790	0.610290133153	7
3	636803	0.610295898211	6
3	636825	0.610307576611	7
3	636830	0.610307954211	6
3	636858	0.610320010211	5
3	636873	0.610326301153	6
3	636884	0.610332066211	5
3	636913	0.610344122211	4
3	636926	0.610350413153	5
3	636933	0.610356178211	4
3	636967	0.610368234211	3
3	636986	0.610380290211	2
3	637010	0.610386581153	3
3	637021	0.610392346211	2
3	637048	0.610404402211	1
3	637065	0.610410693153	2
3	637081	0.610416458211	1
3	637098	0.610428514211	0
3	637145	0.610446861153	0
3	637199	0.610470973153	0
3	637331	0.610531253153	0
3	637467	0.610591533153	0
3	637586	0.610639757153	0
3	637649	0.610671236777	0
3	637664	0.610675925153	1
3	637675	0.610683292777	0
3	637678	0.610684803618	1
3	637702	0.610695348777	0
3	637759	0.610712093153	0
3	637814	0.610736453302	0
3	637849	0.610752142917	0
3	637937	0.610791170976	0
3	638050	0.61084282066	0
3	638171	0.610895318845	0
3	638209	0.610910108589	0
3	638319	0.610961758273	0
3	638447	0.611014573625	0
3	638568	0.611068239567	0
3	638688	0.611121054919	0
3	639064	0.611278782331	0
3	639094	0.611296168611	0
3	639123	0.611308224611	0
3	639180	0.611327005901	0
3	639206	0.611344392611	0
3	639260	0.611363173901	0
3	639285	0.611380560611	0
3	639338	0.611399341901	0
3	639364	0.611416728611	0
3	639424	0.611435509901	0
3	639443	0.611452896611	0
3	639496	0.611471677901	0
3	639556	0.611495789901	0
3	639582	0.611513176611	0
3	639642	0.611531957901	0
3	639709	0.611556069901	0
3	639754	0.611580181901	0
3	639795	0.611597568611	0
3	639818	0.611609624611	0
3	639870	0.611628405901	0
3	639904	0.611645792611	0
3	639923	0.611657848611	0
3	639983	0.611676629901	0
3	640005	0.611694016611	0
3	640065	0.611712797901	0
3	640091	0.611730184611	0
3	640147	0.611748965901	0
3	640165	0.611761460163	0
3	640172	0.611766352611	1
3	640195	0.611773516163	0
3	640220	0.611785133901	1
3	640221	0.611785572163	0
3	640257	0.611802520611	0
3	640302	0.611821301901	0
3	640311	0.611826818295	1
3	640330	0.611833357901	0
3	640336	0.611838688611	1
3	640352	0.611845413901	0
3	640355	0.611850744611	1
3	640377	0.611857469901	0
3	640412	0.611869525901	0
3	640438	0.611886912611	0
3	640467	0.611894076163	1
3	640476	0.611898968611	0
3	640501	0.611905693901	1
3	640508	0.611911024611	0
3	640530	0.611923080611	0
3	640564	0.611935136611	0
3	640602	0.611953917901	0
3	640633	0.611971304611	0
3	640640	0.611972841647	1
3	640659	0.611983360611	0
3	640661	0.611983360611	1
3	640688	0.611995416611	0
3	640700	0.612002141901	1
3	640707	0.612007472611	0
3	640731	0.612019528611	0
3	640750	0.612031584611	0
3	640768	0.612038748163	1
3	640779	0.612043640611	0
3	640806	0.612050365901	1
3	640813	0.612055696611	0
3	640828	0.612067752611	0
3	640862	0.612079808611	0
3	640890	0.612098589901	0
3	640934	0.612115976611	0
3	640946	0.612123140163	1
3	640957	0.612128032611	0
3	640969	0.612134757901	1
3	640976	0.612140088611	0
3	640999	0.612152144611	0
3	641025	0.612164200611	0
3	641060	0.612176442295	0
3	641070	0.612182981901	1
3	641078	0.612188498295	0
3	641103	0.612200368611	1
3	641108	0.612200554295	0
3	641151	0.612219149901	0
3	641187	0.612236536611	0
3	641230	0.612255317901	0
3	641252	0.612272704611	0
3	641266	0.612274241647	1
3	641293	0.612284760611	0
3	641305	0.612291485901	1
3	641312	0.612296816611	0
3	641329	0.612308872611	0
3	641363	0.612320928611	0
3	641381	0.612332984611	0
3	641421	0.612351765901	0
3	641474	0.612377957525	0
3	641496	0.612387933901	1
3	641497	0.612390013525	0
3	641542	0.612412045901	0
3	641585	0.612430969647	0
3	641595	0.612436157901	1
3	641601	0.612443025647	0
3	641632	0.612460269901	0
3	641680	0.612484381901	0
3	641704	0.612501768611	0
3	641746	0.612520549901	0
3	641772	0.612537936611	0
3	641799	0.612549992611	0
3	641833	0.612568773901	0
3	641880	0.612592885901	0
3	641927	0.612616997901	0
3	641968	0.612641109901	0
3	641972	0.612641548163	1
3	641991	0.612653165901	0
3	642018	0.612665221901	0
3	642064	0.612689333901	0
3	642091	0.612706720611	0
3	642131	0.612725501901	0
3	642153	0.612737996163	0
3	642160	0.612742888611	1
3	642177	0.612750052163	0
3	642199	0.612761669901	1
3	642200	0.612762108163	0
3	642223	0.612779056611	0
3	642256	0.612791112611	0
3	642280	0.612803168611	0
3	642332	0.612821949901	0
3	642350	0.612827466295	1
3	642363	0.612834005901	0
3	642424	0.612858117901	0
3	642447	0.612875504611	0
3	642507	0.612894285901	0
3	642534	0.612911672611	0
3	642555	0.61291868237	1
3	642561	0.612923728611	0
3	642563	0.612923728611	1
3	642594	0.612935784611	0
3	642596	0.612935784611	1
3	642621	0.612947840611	0
3	642642	0.612954565901	1
3	642655	0.612959896611	0
3	642700	0.612984008611	0
3	642726	0.612996064611	0
3	642751	0.613008120611	0
3	642794	0.613026901901	0
3	642823	0.613044288611	0
3	642853	0.613056344611	0
3	642876	0.613068400611	0
3	642899	0.613080456611	0
3	642944	0.613099088142	0
3	642953	0.613104568611	1
3	642985	0.613111144142	0
3	642988	0.613116624611	1
3	643003	0.613123200142	0
3	643010	0.613128680611	1
3	643030	0.613135256142	0
3	643039	0.613140736611	1
3	643052	0.613147312142	0
3	643055	0.613152792611	1
3	643089	0.613159368142	0
3	643096	0.613164848611	1
3	643119	0.613171424142	0
3	643146	0.613183480142	0
3	643149	0.613188960611	1
3	643171	0.613195536142	0
3	643182	0.613201016611	1
3	643198	0.613207592142	0
3	643207	0.613213072611	1
3	643227	0.613219648142	0
3	643231	0.613225128611	1
3	643257	0.613231704142	0
3	643264	0.613237184611	1
3	643287	0.613243760142	0
3	643321	0.613255816142	0
3	643347	0.613273352611	0
3	643366	0.613285408611	0
3	643399	0.613297464611	0
3	643461	0.613316096142	0
3	643481	0.613333632611	0
3	643513	0.613345688611	0
3	643537	0.613357744611	0
3	643585	0.613376376142	0
3	643628	0.613393912611	0
3	643670	0.613412544142	0
3	643703	0.613430080611	0
3	643765	0.613448712142	0
3	643803	0.613466248611	0
3	643831	0.613478304611	0
3	643854	0.613490360611	0
3	643904	0.613508992142	0
3	643945	0.613526528611	0
3	643970	0.613538584611	0
3	644002	0.613550640611	0
3	644049	0.613569272142	0
3	644082	0.613586808611	0
3	644115	0.613598864611	0
3	644144	0.613610920611	0
3	644192	0.613629552142	0
3	644217	0.613647088611	0
3	644257	0.613659144611	0
3	644280	0.613671200611	0
3	644335	0.613689832142	0
3	644374	0.613707368611	0
3	644404	0.613719424611	0
3	644460	0.613738056142	0
3	644499	0.613755592611	0
3	644544	0.613774224142	0
3	644586	0.613791760611	0
3	644642	0.613810392142	0
3	644678	0.613827928611	0
3	644740	0.613846560142	0
3	644773	0.613864096611	0
3	644822	0.613882728142	0
3	644861	0.613900264611	0
3	644910	0.613918896142	0
3	644949	0.613936432611	0
3	644991	0.613955064142	0
